Circuit: * Z:\Documentos\GitHub\Projeto_Final_Udacity\Biquad Highpass Filter mc + 4bitPRBS [FALHA].asc

WARNING: Less than two connections to node N008.  This node is used by A1.
Direct Newton iteration failed to find .op point.  (Use ".option noopiter" to skip.)
Starting Gmin stepping
Gmin = 10
Gmin = 1.07374
Gmin = 0.115292
Gmin = 0.0123794
Gmin = 0.00132923
Gmin = 0.000142725
Gmin = 1.5325e-005
Gmin = 1.6455e-006
Gmin = 1.76685e-007
Gmin = 1.89714e-008
Gmin = 2.03704e-009
Gmin = 2.18725e-010
Gmin = 2.34854e-011
Gmin = 2.52173e-012
Gmin = 2.70769e-013
Gmin = 0
Gmin stepping succeeded in finding the operating point.

.step run=1
.step run=2
.step run=3
.step run=4
.step run=5
.step run=6
.step run=7
.step run=8
.step run=9
.step run=10
.step run=11
.step run=12
.step run=13
.step run=14
.step run=15
.step run=16
.step run=17
.step run=18
.step run=19
.step run=20
.step run=21
.step run=22
.step run=23
.step run=24
.step run=25
.step run=26
.step run=27
.step run=28
.step run=29
.step run=30
.step run=31
.step run=32
.step run=33
.step run=34
.step run=35
.step run=36
.step run=37
.step run=38
.step run=39
.step run=40
.step run=41
.step run=42
.step run=43
.step run=44
.step run=45
.step run=46
.step run=47
.step run=48
.step run=49
.step run=50
.step run=51
.step run=52
.step run=53
.step run=54
.step run=55
.step run=56
.step run=57
.step run=58
.step run=59
.step run=60
.step run=61
.step run=62
.step run=63
.step run=64
.step run=65
.step run=66
.step run=67
.step run=68
.step run=69
.step run=70
.step run=71
.step run=72
.step run=73
.step run=74
.step run=75
.step run=76
.step run=77
.step run=78
.step run=79
.step run=80
.step run=81
.step run=82
.step run=83
.step run=84
.step run=85
.step run=86
.step run=87
.step run=88
.step run=89
.step run=90
.step run=91
.step run=92
.step run=93
.step run=94
.step run=95
.step run=96
.step run=97
.step run=98
.step run=99
.step run=100
.step run=101
.step run=102
.step run=103
.step run=104
.step run=105
.step run=106
.step run=107
.step run=108
.step run=109
.step run=110
.step run=111
.step run=112
.step run=113
.step run=114
.step run=115
.step run=116
.step run=117
.step run=118
.step run=119
.step run=120
.step run=121
.step run=122
.step run=123
.step run=124
.step run=125
.step run=126
.step run=127
.step run=128
.step run=129
.step run=130
.step run=131
.step run=132
.step run=133
.step run=134
.step run=135
.step run=136
.step run=137
.step run=138
.step run=139
.step run=140
.step run=141
.step run=142
.step run=143
.step run=144
.step run=145
.step run=146
.step run=147
.step run=148
.step run=149
.step run=150
.step run=151
.step run=152
.step run=153
.step run=154
.step run=155
.step run=156
.step run=157
.step run=158
.step run=159
.step run=160
.step run=161
.step run=162
.step run=163
.step run=164
.step run=165
.step run=166
.step run=167
.step run=168
.step run=169
.step run=170
.step run=171
.step run=172
.step run=173
.step run=174
.step run=175
.step run=176
.step run=177
.step run=178
.step run=179
.step run=180
.step run=181
.step run=182
.step run=183
.step run=184
.step run=185
.step run=186
.step run=187
.step run=188
.step run=189
.step run=190
.step run=191
.step run=192
.step run=193
.step run=194
.step run=195
.step run=196
.step run=197
.step run=198
.step run=199
.step run=200
.step run=201
.step run=202
.step run=203
.step run=204
.step run=205
.step run=206
.step run=207
.step run=208
.step run=209
.step run=210
.step run=211
.step run=212
.step run=213
.step run=214
.step run=215
.step run=216
.step run=217
.step run=218
.step run=219
.step run=220
.step run=221
.step run=222
.step run=223
.step run=224
.step run=225
.step run=226
.step run=227
.step run=228
.step run=229
.step run=230
.step run=231
.step run=232
.step run=233
.step run=234
.step run=235
.step run=236
.step run=237
.step run=238
.step run=239
.step run=240
.step run=241
.step run=242
.step run=243
.step run=244
.step run=245
.step run=246
.step run=247
.step run=248
.step run=249
.step run=250
.step run=251
.step run=252
.step run=253
.step run=254
.step run=255
.step run=256
.step run=257
.step run=258
.step run=259
.step run=260
.step run=261
.step run=262
.step run=263
.step run=264
.step run=265
.step run=266
.step run=267
.step run=268
.step run=269
.step run=270
.step run=271
.step run=272
.step run=273
.step run=274
.step run=275
.step run=276
.step run=277
.step run=278
.step run=279
.step run=280
.step run=281
.step run=282
.step run=283
.step run=284
.step run=285
.step run=286
.step run=287
.step run=288
.step run=289
.step run=290
.step run=291
.step run=292
.step run=293
.step run=294
.step run=295
.step run=296
.step run=297
.step run=298
.step run=299
.step run=300
.step run=301
.step run=302
.step run=303
.step run=304
.step run=305
.step run=306
.step run=307
.step run=308
.step run=309
.step run=310
.step run=311
.step run=312
.step run=313
.step run=314
.step run=315
.step run=316
.step run=317
.step run=318
.step run=319
.step run=320
.step run=321
.step run=322
.step run=323
.step run=324
.step run=325
.step run=326
.step run=327
.step run=328
.step run=329
.step run=330
.step run=331
.step run=332
.step run=333
.step run=334
.step run=335
.step run=336
.step run=337
.step run=338
.step run=339
.step run=340
.step run=341
.step run=342
.step run=343
.step run=344
.step run=345
.step run=346
.step run=347
.step run=348
.step run=349
.step run=350
.step run=351
.step run=352
.step run=353
.step run=354
.step run=355
.step run=356
.step run=357
.step run=358
.step run=359
.step run=360
.step run=361
.step run=362
.step run=363
.step run=364
.step run=365
.step run=366
.step run=367
.step run=368
.step run=369
.step run=370
.step run=371
.step run=372
.step run=373
.step run=374
.step run=375
.step run=376
.step run=377
.step run=378
.step run=379
.step run=380
.step run=381
.step run=382
.step run=383
.step run=384
.step run=385
.step run=386
.step run=387
.step run=388
.step run=389
.step run=390
.step run=391
.step run=392
.step run=393
.step run=394
.step run=395
.step run=396
.step run=397
.step run=398
.step run=399
.step run=400
.step run=401
.step run=402
.step run=403
.step run=404
.step run=405
.step run=406
.step run=407
.step run=408
.step run=409
.step run=410
.step run=411
.step run=412
.step run=413
.step run=414
.step run=415
.step run=416
.step run=417
.step run=418
.step run=419
.step run=420
.step run=421
.step run=422
.step run=423
.step run=424
.step run=425
.step run=426
.step run=427
.step run=428
.step run=429
.step run=430
.step run=431
.step run=432
.step run=433
.step run=434
.step run=435
.step run=436
.step run=437
.step run=438
.step run=439
.step run=440
.step run=441
.step run=442
.step run=443
.step run=444
.step run=445
.step run=446
.step run=447
.step run=448
.step run=449
.step run=450
.step run=451
.step run=452
.step run=453
.step run=454
.step run=455
.step run=456
.step run=457
.step run=458
.step run=459
.step run=460
.step run=461
.step run=462
.step run=463
.step run=464
.step run=465
.step run=466
.step run=467
.step run=468
.step run=469
.step run=470
.step run=471
.step run=472
.step run=473
.step run=474
.step run=475
.step run=476
.step run=477
.step run=478
.step run=479
.step run=480
.step run=481
.step run=482
.step run=483
.step run=484
.step run=485
.step run=486
.step run=487
.step run=488
.step run=489
.step run=490
.step run=491
.step run=492
.step run=493
.step run=494
.step run=495
.step run=496
.step run=497
.step run=498
.step run=499
.step run=500
.step run=501
.step run=502
.step run=503
.step run=504
.step run=505
.step run=506
.step run=507
.step run=508
.step run=509
.step run=510
.step run=511
.step run=512
.step run=513
.step run=514
.step run=515
.step run=516
.step run=517
.step run=518
.step run=519
.step run=520
.step run=521
.step run=522
.step run=523
.step run=524
.step run=525
.step run=526
.step run=527
.step run=528
.step run=529
.step run=530
.step run=531
.step run=532
.step run=533
.step run=534
.step run=535
.step run=536
.step run=537
.step run=538
.step run=539
.step run=540
.step run=541
.step run=542
.step run=543
.step run=544
.step run=545
.step run=546
.step run=547
.step run=548
.step run=549
.step run=550
.step run=551
.step run=552
.step run=553
.step run=554
.step run=555
.step run=556
.step run=557
.step run=558
.step run=559
.step run=560
.step run=561
.step run=562
.step run=563
.step run=564
.step run=565
.step run=566
.step run=567
.step run=568
.step run=569
.step run=570
.step run=571
.step run=572
.step run=573
.step run=574
.step run=575
.step run=576
.step run=577
.step run=578
.step run=579
.step run=580
.step run=581
.step run=582
.step run=583
.step run=584
.step run=585
.step run=586
.step run=587
.step run=588
.step run=589
.step run=590
.step run=591
.step run=592
.step run=593
.step run=594
.step run=595
.step run=596
.step run=597
.step run=598
.step run=599
.step run=600
.step run=601
.step run=602
.step run=603
.step run=604
.step run=605
.step run=606
.step run=607
.step run=608
.step run=609
.step run=610
.step run=611
.step run=612
.step run=613
.step run=614
.step run=615
.step run=616
.step run=617
.step run=618
.step run=619
.step run=620
.step run=621
.step run=622
.step run=623
.step run=624
.step run=625
.step run=626
.step run=627
.step run=628
.step run=629
.step run=630
.step run=631
.step run=632
.step run=633
.step run=634
.step run=635
.step run=636
.step run=637
.step run=638
.step run=639
.step run=640
.step run=641
.step run=642
.step run=643
.step run=644
.step run=645
.step run=646
.step run=647
.step run=648
.step run=649
.step run=650
.step run=651
.step run=652
.step run=653
.step run=654
.step run=655
.step run=656
.step run=657
.step run=658
.step run=659
.step run=660
.step run=661
.step run=662
.step run=663
.step run=664
.step run=665
.step run=666
.step run=667
.step run=668
.step run=669
.step run=670
.step run=671
.step run=672
.step run=673
.step run=674
.step run=675
.step run=676
.step run=677
.step run=678
.step run=679
.step run=680
.step run=681
.step run=682
.step run=683
.step run=684
.step run=685
.step run=686
.step run=687
.step run=688
.step run=689
.step run=690
.step run=691
.step run=692
.step run=693
.step run=694
.step run=695
.step run=696
.step run=697
.step run=698
.step run=699
.step run=700
.step run=701
.step run=702
.step run=703
.step run=704
.step run=705
.step run=706
.step run=707
.step run=708
.step run=709
.step run=710
.step run=711
.step run=712
.step run=713
.step run=714
.step run=715
.step run=716
.step run=717
.step run=718
.step run=719
.step run=720
.step run=721
.step run=722
.step run=723
.step run=724
.step run=725
.step run=726
.step run=727
.step run=728
.step run=729
.step run=730
.step run=731
.step run=732
.step run=733
.step run=734
.step run=735
.step run=736
.step run=737
.step run=738
.step run=739
.step run=740
.step run=741
.step run=742
.step run=743
.step run=744
.step run=745
.step run=746
.step run=747
.step run=748
.step run=749
.step run=750
.step run=751
.step run=752
.step run=753
.step run=754
.step run=755
.step run=756
.step run=757
.step run=758
.step run=759
.step run=760
.step run=761
.step run=762
.step run=763
.step run=764
.step run=765
.step run=766
.step run=767
.step run=768
.step run=769
.step run=770
.step run=771
.step run=772
.step run=773
.step run=774
.step run=775
.step run=776
.step run=777
.step run=778
.step run=779
.step run=780
.step run=781
.step run=782
.step run=783
.step run=784
.step run=785
.step run=786
.step run=787
.step run=788
.step run=789
.step run=790
.step run=791
.step run=792
.step run=793
.step run=794
.step run=795
.step run=796
.step run=797
.step run=798
.step run=799
.step run=800
.step run=801
.step run=802
.step run=803
.step run=804
.step run=805
.step run=806
.step run=807
.step run=808
.step run=809
.step run=810
.step run=811
.step run=812
.step run=813
.step run=814
.step run=815
.step run=816
.step run=817
.step run=818
.step run=819
.step run=820
.step run=821
.step run=822
.step run=823
.step run=824
.step run=825
.step run=826
.step run=827
.step run=828
.step run=829
.step run=830
.step run=831
.step run=832
.step run=833
.step run=834
.step run=835
.step run=836
.step run=837
.step run=838
.step run=839
.step run=840
.step run=841
.step run=842
.step run=843
.step run=844
.step run=845
.step run=846
.step run=847
.step run=848
.step run=849
.step run=850
.step run=851
.step run=852
