Circuit: * Z:\Documentos\GitHub\Projeto_Final_Udacity\CTSV mc + 4bitPRBS [FALHA].asc

WARNING: Less than two connections to node N008.  This node is used by A1.
Direct Newton iteration failed to find .op point.  (Use ".option noopiter" to skip.)
Starting Gmin stepping
Gmin = 10
Gmin = 1.07374
Gmin = 0.115292
Gmin = 0.0123794
Gmin = 0.00132923
Gmin = 0.000142725
Gmin = 1.5325e-005
Gmin = 1.6455e-006
Gmin = 1.76685e-007
Gmin = 1.89714e-008
Gmin = 2.03704e-009
Gmin = 2.18725e-010
Gmin = 2.34854e-011
Gmin = 2.52173e-012
Gmin = 2.70769e-013
Gmin = 0
Gmin stepping succeeded in finding the operating point.

.step run=1
.step run=2
.step run=3
.step run=4
.step run=5
.step run=6
.step run=7
.step run=8
.step run=9
.step run=10
.step run=11
.step run=12
.step run=13
.step run=14
.step run=15
.step run=16
.step run=17
.step run=18
.step run=19
.step run=20
.step run=21
.step run=22
.step run=23
.step run=24
.step run=25
.step run=26
.step run=27
.step run=28
.step run=29
.step run=30
.step run=31
.step run=32
.step run=33
.step run=34
.step run=35
.step run=36
.step run=37
.step run=38
.step run=39
.step run=40
.step run=41
.step run=42
.step run=43
.step run=44
.step run=45
.step run=46
.step run=47
.step run=48
.step run=49
.step run=50
.step run=51
.step run=52
.step run=53
.step run=54
.step run=55
.step run=56
.step run=57
.step run=58
.step run=59
.step run=60
.step run=61
.step run=62
.step run=63
.step run=64
.step run=65
.step run=66
.step run=67
.step run=68
.step run=69
.step run=70
.step run=71
.step run=72
.step run=73
.step run=74
.step run=75
.step run=76
.step run=77
.step run=78
.step run=79
.step run=80
.step run=81
.step run=82
.step run=83
.step run=84
.step run=85
.step run=86
.step run=87
.step run=88
.step run=89
.step run=90
.step run=91
.step run=92
.step run=93
.step run=94
.step run=95
.step run=96
.step run=97
.step run=98
.step run=99
.step run=100
.step run=101
.step run=102
.step run=103
.step run=104
.step run=105
.step run=106
.step run=107
.step run=108
.step run=109
.step run=110
.step run=111
.step run=112
.step run=113
.step run=114
.step run=115
.step run=116
.step run=117
.step run=118
.step run=119
.step run=120
.step run=121
.step run=122
.step run=123
.step run=124
.step run=125
.step run=126
.step run=127
.step run=128
.step run=129
.step run=130
.step run=131
.step run=132
.step run=133
.step run=134
.step run=135
.step run=136
.step run=137
.step run=138
.step run=139
.step run=140
.step run=141
.step run=142
.step run=143
.step run=144
.step run=145
.step run=146
.step run=147
.step run=148
.step run=149
.step run=150
.step run=151
.step run=152
.step run=153
.step run=154
.step run=155
.step run=156
.step run=157
.step run=158
.step run=159
.step run=160
.step run=161
.step run=162
.step run=163
.step run=164
.step run=165
.step run=166
.step run=167
.step run=168
.step run=169
.step run=170
.step run=171
.step run=172
.step run=173
.step run=174
.step run=175
.step run=176
.step run=177
.step run=178
.step run=179
.step run=180
.step run=181
.step run=182
.step run=183
.step run=184
.step run=185
.step run=186
.step run=187
.step run=188
.step run=189
.step run=190
.step run=191
.step run=192
.step run=193
.step run=194
.step run=195
.step run=196
.step run=197
.step run=198
.step run=199
.step run=200
.step run=201
.step run=202
.step run=203
.step run=204
.step run=205
.step run=206
.step run=207
.step run=208
.step run=209
.step run=210
.step run=211
.step run=212
.step run=213
.step run=214
.step run=215
.step run=216
.step run=217
.step run=218
.step run=219
.step run=220
.step run=221
.step run=222
.step run=223
.step run=224
.step run=225
.step run=226
.step run=227
.step run=228
.step run=229
.step run=230
.step run=231
.step run=232
.step run=233
.step run=234
.step run=235
.step run=236
.step run=237
.step run=238
.step run=239
.step run=240
.step run=241
.step run=242
.step run=243
.step run=244
.step run=245
.step run=246
.step run=247
.step run=248
.step run=249
.step run=250
.step run=251
.step run=252
.step run=253
.step run=254
.step run=255
.step run=256
.step run=257
.step run=258
.step run=259
.step run=260
.step run=261
.step run=262
.step run=263
.step run=264
.step run=265
.step run=266
.step run=267
.step run=268
.step run=269
.step run=270
.step run=271
.step run=272
.step run=273
.step run=274
.step run=275
.step run=276
.step run=277
.step run=278
.step run=279
.step run=280
.step run=281
.step run=282
.step run=283
.step run=284
.step run=285
.step run=286
.step run=287
.step run=288
.step run=289
.step run=290
.step run=291
.step run=292
.step run=293
.step run=294
.step run=295
.step run=296
.step run=297
.step run=298
.step run=299
.step run=300
.step run=301
.step run=302
.step run=303
.step run=304
.step run=305
.step run=306
.step run=307
.step run=308
.step run=309
.step run=310
.step run=311
.step run=312
.step run=313
.step run=314
.step run=315
.step run=316
.step run=317
.step run=318
.step run=319
.step run=320
.step run=321
.step run=322
.step run=323
.step run=324
.step run=325
.step run=326
.step run=327
.step run=328
.step run=329
.step run=330
.step run=331
.step run=332
.step run=333
.step run=334
.step run=335
.step run=336
.step run=337
.step run=338
.step run=339
.step run=340
.step run=341
.step run=342
.step run=343
.step run=344
.step run=345
.step run=346
.step run=347
.step run=348
.step run=349
.step run=350
.step run=351
.step run=352
.step run=353
.step run=354
.step run=355
.step run=356
.step run=357
.step run=358
.step run=359
.step run=360
.step run=361
.step run=362
.step run=363
.step run=364
.step run=365
.step run=366
.step run=367
.step run=368
.step run=369
.step run=370
.step run=371
.step run=372
.step run=373
.step run=374
.step run=375
.step run=376
.step run=377
.step run=378
.step run=379
.step run=380
.step run=381
.step run=382
.step run=383
.step run=384
.step run=385
.step run=386
.step run=387
.step run=388
.step run=389
.step run=390
.step run=391
.step run=392
.step run=393
.step run=394
.step run=395
.step run=396
.step run=397
.step run=398
.step run=399
.step run=400
.step run=401
.step run=402
.step run=403
.step run=404
.step run=405
.step run=406
.step run=407
.step run=408
.step run=409
.step run=410
.step run=411
.step run=412
.step run=413
.step run=414
.step run=415
.step run=416
.step run=417
.step run=418
.step run=419
.step run=420
.step run=421
.step run=422
.step run=423
.step run=424
.step run=425
.step run=426
.step run=427
.step run=428
.step run=429
.step run=430
.step run=431
.step run=432
.step run=433
.step run=434
.step run=435
.step run=436
.step run=437
.step run=438
.step run=439
.step run=440
.step run=441
.step run=442
.step run=443
.step run=444
.step run=445
.step run=446
.step run=447
.step run=448
.step run=449
.step run=450
.step run=451
.step run=452
.step run=453
.step run=454
.step run=455
.step run=456
.step run=457
.step run=458
.step run=459
.step run=460
.step run=461
.step run=462
.step run=463
.step run=464
.step run=465
.step run=466
.step run=467
.step run=468
.step run=469
.step run=470
.step run=471
.step run=472
.step run=473
.step run=474
.step run=475
.step run=476
.step run=477
.step run=478
.step run=479
.step run=480
.step run=481
.step run=482
.step run=483
.step run=484
.step run=485
.step run=486
.step run=487
.step run=488
.step run=489
.step run=490
.step run=491
.step run=492
.step run=493
.step run=494
.step run=495
.step run=496
.step run=497
.step run=498
.step run=499
.step run=500
.step run=501
.step run=502
.step run=503
.step run=504
.step run=505
.step run=506
.step run=507
.step run=508
.step run=509
.step run=510
.step run=511
.step run=512
.step run=513
.step run=514
.step run=515
.step run=516
.step run=517
.step run=518
.step run=519
.step run=520
.step run=521
.step run=522
.step run=523
.step run=524
.step run=525
.step run=526
.step run=527
.step run=528
.step run=529
.step run=530
.step run=531
.step run=532
.step run=533
.step run=534
.step run=535
.step run=536
.step run=537
.step run=538
.step run=539
.step run=540
.step run=541
.step run=542
.step run=543
.step run=544
.step run=545
.step run=546
.step run=547
.step run=548
.step run=549
.step run=550
.step run=551
.step run=552
.step run=553
.step run=554
.step run=555
.step run=556
.step run=557
.step run=558
.step run=559
.step run=560
.step run=561
.step run=562
.step run=563
.step run=564
.step run=565
.step run=566
.step run=567
.step run=568
.step run=569
.step run=570
.step run=571
.step run=572
.step run=573
.step run=574
.step run=575
.step run=576
.step run=577
.step run=578
.step run=579
.step run=580
.step run=581
.step run=582
.step run=583
.step run=584
.step run=585
.step run=586
.step run=587
.step run=588
.step run=589
.step run=590
.step run=591
.step run=592
.step run=593
.step run=594
.step run=595
.step run=596
.step run=597
.step run=598
.step run=599
.step run=600
.step run=601
.step run=602
.step run=603
.step run=604
.step run=605
.step run=606
.step run=607
.step run=608
.step run=609
.step run=610
.step run=611
.step run=612
.step run=613
.step run=614
.step run=615
.step run=616
.step run=617
.step run=618
.step run=619
.step run=620
.step run=621
.step run=622
.step run=623
.step run=624
.step run=625
.step run=626
.step run=627
.step run=628
.step run=629
.step run=630
.step run=631
.step run=632
.step run=633
.step run=634
.step run=635
.step run=636
.step run=637
.step run=638
.step run=639
.step run=640
.step run=641
.step run=642
.step run=643
.step run=644
.step run=645
.step run=646
.step run=647
.step run=648
.step run=649
.step run=650
.step run=651
.step run=652
.step run=653
.step run=654
.step run=655
.step run=656
.step run=657
.step run=658
.step run=659
.step run=660
.step run=661
.step run=662
.step run=663
.step run=664
.step run=665
.step run=666
.step run=667
.step run=668
.step run=669
.step run=670
.step run=671
.step run=672
.step run=673
.step run=674
.step run=675
.step run=676
.step run=677
.step run=678
.step run=679
.step run=680
.step run=681
.step run=682
.step run=683
.step run=684
.step run=685
.step run=686
.step run=687
.step run=688
.step run=689
.step run=690
.step run=691
.step run=692
.step run=693
.step run=694
.step run=695
.step run=696
.step run=697
.step run=698
.step run=699
.step run=700
.step run=701
.step run=702
.step run=703
.step run=704
.step run=705
.step run=706
.step run=707
.step run=708
.step run=709
.step run=710
.step run=711
.step run=712
.step run=713
.step run=714
.step run=715
.step run=716
.step run=717
.step run=718
.step run=719
.step run=720
.step run=721
.step run=722
.step run=723
.step run=724
.step run=725
.step run=726
.step run=727
.step run=728
.step run=729
.step run=730
.step run=731
.step run=732
.step run=733
.step run=734
.step run=735
.step run=736
.step run=737
.step run=738
.step run=739
.step run=740
.step run=741
.step run=742
.step run=743
.step run=744
.step run=745
.step run=746
.step run=747
.step run=748
.step run=749
.step run=750
.step run=751
.step run=752
.step run=753
.step run=754
.step run=755
.step run=756
.step run=757
.step run=758
.step run=759
.step run=760
.step run=761
.step run=762
.step run=763
.step run=764
.step run=765
.step run=766
.step run=767
.step run=768
.step run=769
.step run=770
.step run=771
.step run=772
.step run=773
.step run=774
.step run=775
.step run=776
.step run=777
.step run=778
.step run=779
.step run=780
.step run=781
.step run=782
.step run=783
.step run=784
.step run=785
.step run=786
.step run=787
.step run=788
.step run=789
.step run=790
.step run=791
.step run=792
.step run=793
.step run=794
.step run=795
.step run=796
.step run=797
.step run=798
.step run=799
.step run=800
.step run=801
.step run=802
.step run=803
.step run=804
.step run=805
.step run=806
.step run=807
.step run=808
.step run=809
.step run=810
.step run=811
.step run=812
.step run=813
.step run=814
.step run=815
.step run=816
.step run=817
.step run=818
.step run=819
.step run=820
.step run=821
.step run=822
.step run=823
.step run=824
.step run=825
.step run=826
.step run=827
.step run=828
.step run=829
.step run=830
.step run=831
.step run=832
.step run=833
.step run=834
.step run=835
.step run=836
.step run=837
.step run=838
.step run=839
.step run=840
.step run=841
.step run=842
.step run=843
.step run=844
.step run=845
.step run=846
.step run=847
.step run=848
.step run=849
.step run=850
.step run=851
.step run=852
.step run=853
.step run=854
.step run=855
.step run=856
.step run=857
.step run=858
.step run=859
.step run=860
.step run=861
.step run=862
.step run=863
.step run=864
.step run=865
.step run=866
.step run=867
.step run=868
.step run=869
.step run=870
.step run=871
.step run=872
.step run=873
.step run=874
.step run=875
.step run=876
.step run=877
.step run=878
.step run=879
.step run=880
.step run=881
.step run=882
.step run=883
.step run=884
.step run=885
.step run=886
.step run=887
.step run=888
.step run=889
.step run=890
.step run=891
.step run=892
.step run=893
.step run=894
.step run=895
.step run=896
.step run=897
.step run=898
.step run=899
.step run=900
.step run=901
.step run=902
.step run=903
.step run=904
.step run=905
.step run=906
.step run=907
.step run=908
.step run=909
.step run=910
.step run=911
.step run=912
.step run=913
.step run=914
.step run=915
.step run=916
.step run=917
.step run=918
.step run=919
.step run=920
.step run=921
.step run=922
.step run=923
.step run=924
.step run=925
.step run=926
.step run=927
.step run=928
.step run=929
.step run=930
.step run=931
.step run=932
.step run=933
.step run=934
.step run=935
.step run=936
.step run=937
.step run=938
.step run=939
.step run=940
.step run=941
.step run=942
.step run=943
.step run=944
.step run=945
.step run=946
.step run=947
.step run=948
.step run=949
.step run=950
.step run=951
.step run=952
.step run=953
.step run=954
.step run=955
.step run=956
.step run=957
.step run=958
.step run=959
.step run=960
.step run=961
.step run=962
.step run=963
.step run=964
.step run=965
.step run=966
.step run=967
.step run=968
.step run=969
.step run=970
.step run=971
.step run=972
.step run=973
.step run=974
.step run=975
.step run=976
.step run=977
.step run=978
.step run=979
.step run=980
.step run=981
.step run=982
.step run=983
.step run=984
.step run=985
.step run=986
.step run=987
.step run=988
.step run=989
.step run=990
.step run=991
.step run=992
.step run=993
.step run=994
.step run=995
.step run=996
.step run=997
.step run=998
.step run=999
.step run=1000
.step run=1001
.step run=1002
.step run=1003
.step run=1004
.step run=1005
.step run=1006
.step run=1007
.step run=1008
.step run=1009
.step run=1010
.step run=1011
.step run=1012
.step run=1013
.step run=1014
.step run=1015
.step run=1016
.step run=1017
.step run=1018
.step run=1019
.step run=1020
.step run=1021
.step run=1022
.step run=1023
.step run=1024
.step run=1025
.step run=1026
.step run=1027
.step run=1028
.step run=1029
.step run=1030
.step run=1031
.step run=1032
.step run=1033
.step run=1034
.step run=1035
.step run=1036
.step run=1037
.step run=1038
.step run=1039
.step run=1040
.step run=1041
.step run=1042
.step run=1043
.step run=1044
.step run=1045
.step run=1046
.step run=1047
.step run=1048
.step run=1049
.step run=1050
.step run=1051
.step run=1052
.step run=1053
.step run=1054
.step run=1055
.step run=1056
.step run=1057
.step run=1058
.step run=1059
.step run=1060
.step run=1061
.step run=1062
.step run=1063
.step run=1064
.step run=1065
.step run=1066
.step run=1067
.step run=1068
.step run=1069
.step run=1070
.step run=1071
.step run=1072
.step run=1073
.step run=1074
.step run=1075
.step run=1076
.step run=1077
.step run=1078
.step run=1079
.step run=1080
.step run=1081
.step run=1082
.step run=1083
.step run=1084
.step run=1085
.step run=1086
.step run=1087
.step run=1088
.step run=1089
.step run=1090
.step run=1091
.step run=1092
.step run=1093
.step run=1094
.step run=1095
.step run=1096
.step run=1097
.step run=1098
.step run=1099
.step run=1100
.step run=1101
.step run=1102
.step run=1103
.step run=1104
.step run=1105
.step run=1106
.step run=1107
.step run=1108
.step run=1109
.step run=1110
.step run=1111
.step run=1112
.step run=1113
.step run=1114
.step run=1115
.step run=1116
.step run=1117
.step run=1118
.step run=1119
.step run=1120
.step run=1121
.step run=1122
.step run=1123
.step run=1124
.step run=1125
.step run=1126
.step run=1127
.step run=1128
.step run=1129
.step run=1130
.step run=1131
.step run=1132
.step run=1133
.step run=1134
.step run=1135
.step run=1136
.step run=1137
.step run=1138
.step run=1139
.step run=1140
.step run=1141
.step run=1142
.step run=1143
.step run=1144
.step run=1145
.step run=1146
.step run=1147
.step run=1148
.step run=1149
.step run=1150
.step run=1151
.step run=1152
.step run=1153
.step run=1154
.step run=1155
.step run=1156
.step run=1157
.step run=1158
.step run=1159
.step run=1160
.step run=1161
.step run=1162
.step run=1163
.step run=1164
.step run=1165
.step run=1166
.step run=1167
.step run=1168
.step run=1169
.step run=1170
.step run=1171
.step run=1172
.step run=1173
.step run=1174
.step run=1175
.step run=1176
.step run=1177
.step run=1178
.step run=1179
.step run=1180
.step run=1181
.step run=1182
.step run=1183
.step run=1184
.step run=1185
.step run=1186
.step run=1187
.step run=1188
.step run=1189
.step run=1190
.step run=1191
.step run=1192
.step run=1193
.step run=1194
.step run=1195
.step run=1196
.step run=1197
.step run=1198
.step run=1199
.step run=1200
.step run=1201
.step run=1202
.step run=1203
.step run=1204
.step run=1205
.step run=1206
.step run=1207
.step run=1208
.step run=1209
.step run=1210
.step run=1211
.step run=1212
.step run=1213
.step run=1214
.step run=1215
.step run=1216
.step run=1217
.step run=1218
.step run=1219
.step run=1220
.step run=1221
.step run=1222
.step run=1223
.step run=1224
.step run=1225
.step run=1226
.step run=1227
.step run=1228
.step run=1229
.step run=1230
.step run=1231
.step run=1232
.step run=1233
.step run=1234
.step run=1235
.step run=1236
.step run=1237
.step run=1238
.step run=1239
.step run=1240
.step run=1241
.step run=1242
.step run=1243
.step run=1244
.step run=1245
.step run=1246
.step run=1247
.step run=1248
.step run=1249
.step run=1250
.step run=1251
.step run=1252
.step run=1253
.step run=1254
.step run=1255
.step run=1256
.step run=1257
.step run=1258
.step run=1259
.step run=1260
.step run=1261
.step run=1262
.step run=1263
.step run=1264
.step run=1265
.step run=1266
.step run=1267
.step run=1268
.step run=1269
.step run=1270
.step run=1271
.step run=1272
.step run=1273
.step run=1274
.step run=1275
.step run=1276
.step run=1277
.step run=1278
.step run=1279
.step run=1280
.step run=1281
.step run=1282
.step run=1283
.step run=1284
.step run=1285
.step run=1286
.step run=1287
.step run=1288
.step run=1289
.step run=1290
.step run=1291
.step run=1292
.step run=1293
.step run=1294
.step run=1295
.step run=1296
.step run=1297
.step run=1298
.step run=1299
.step run=1300
.step run=1301
.step run=1302
.step run=1303
.step run=1304
.step run=1305
.step run=1306
.step run=1307
.step run=1308
.step run=1309
.step run=1310
.step run=1311
.step run=1312
.step run=1313
.step run=1314
.step run=1315
.step run=1316
.step run=1317
.step run=1318
.step run=1319
.step run=1320
.step run=1321
.step run=1322
.step run=1323
.step run=1324
.step run=1325
.step run=1326
.step run=1327
.step run=1328
.step run=1329
.step run=1330
.step run=1331
.step run=1332
.step run=1333
.step run=1334
.step run=1335
.step run=1336
.step run=1337
.step run=1338
.step run=1339
.step run=1340
.step run=1341
.step run=1342
.step run=1343
.step run=1344
.step run=1345
.step run=1346
.step run=1347
.step run=1348
.step run=1349
.step run=1350
.step run=1351
.step run=1352
.step run=1353
.step run=1354
.step run=1355
.step run=1356
.step run=1357
.step run=1358
.step run=1359
.step run=1360
.step run=1361
.step run=1362
.step run=1363
.step run=1364
.step run=1365
.step run=1366
.step run=1367
.step run=1368
.step run=1369
.step run=1370
.step run=1371
.step run=1372
.step run=1373
.step run=1374
.step run=1375
.step run=1376
.step run=1377
.step run=1378
.step run=1379
.step run=1380
.step run=1381
.step run=1382
.step run=1383
.step run=1384
.step run=1385
.step run=1386
.step run=1387
.step run=1388
.step run=1389
.step run=1390
.step run=1391
.step run=1392
.step run=1393
.step run=1394
.step run=1395
.step run=1396
.step run=1397
.step run=1398
.step run=1399
.step run=1400
.step run=1401
.step run=1402
.step run=1403
.step run=1404
.step run=1405
.step run=1406
.step run=1407
.step run=1408
.step run=1409
.step run=1410
.step run=1411
.step run=1412
.step run=1413
.step run=1414
.step run=1415
.step run=1416
.step run=1417
.step run=1418
.step run=1419
.step run=1420
.step run=1421
.step run=1422
.step run=1423
.step run=1424
.step run=1425
.step run=1426
.step run=1427
.step run=1428
.step run=1429
.step run=1430
.step run=1431
.step run=1432
.step run=1433
.step run=1434
.step run=1435
.step run=1436
.step run=1437
.step run=1438
.step run=1439
.step run=1440
.step run=1441
.step run=1442
.step run=1443
.step run=1444
.step run=1445
.step run=1446
.step run=1447
.step run=1448
.step run=1449
.step run=1450
.step run=1451
.step run=1452
.step run=1453
.step run=1454
.step run=1455
.step run=1456
.step run=1457
.step run=1458
.step run=1459
.step run=1460
.step run=1461
.step run=1462
.step run=1463
.step run=1464
.step run=1465
.step run=1466
.step run=1467
.step run=1468
.step run=1469
.step run=1470
.step run=1471
.step run=1472
.step run=1473
.step run=1474
.step run=1475
.step run=1476
.step run=1477
.step run=1478
.step run=1479
.step run=1480
.step run=1481
.step run=1482
.step run=1483
.step run=1484
.step run=1485
.step run=1486
.step run=1487
.step run=1488
.step run=1489
.step run=1490
.step run=1491
.step run=1492
.step run=1493
.step run=1494
.step run=1495
.step run=1496
.step run=1497
.step run=1498
.step run=1499
.step run=1500
.step run=1501
.step run=1502
.step run=1503
.step run=1504
.step run=1505
.step run=1506
.step run=1507
.step run=1508
.step run=1509
.step run=1510
.step run=1511
.step run=1512
.step run=1513
.step run=1514
.step run=1515
.step run=1516
.step run=1517
.step run=1518
.step run=1519
.step run=1520
.step run=1521
.step run=1522
.step run=1523
.step run=1524
.step run=1525
.step run=1526
.step run=1527
.step run=1528
.step run=1529
.step run=1530
.step run=1531
.step run=1532
.step run=1533
.step run=1534
.step run=1535
.step run=1536
.step run=1537
.step run=1538
.step run=1539
.step run=1540
.step run=1541
.step run=1542
.step run=1543
.step run=1544
.step run=1545
.step run=1546
.step run=1547
.step run=1548
.step run=1549
.step run=1550
.step run=1551
.step run=1552
.step run=1553
.step run=1554
.step run=1555
.step run=1556
.step run=1557
.step run=1558
.step run=1559
.step run=1560
.step run=1561
.step run=1562
.step run=1563
.step run=1564
.step run=1565
.step run=1566
.step run=1567
.step run=1568
.step run=1569
.step run=1570
.step run=1571
.step run=1572
.step run=1573
.step run=1574
.step run=1575
.step run=1576
.step run=1577
.step run=1578
.step run=1579
.step run=1580
.step run=1581
.step run=1582
.step run=1583
.step run=1584
.step run=1585
.step run=1586
.step run=1587
.step run=1588
.step run=1589
.step run=1590
.step run=1591
.step run=1592
.step run=1593
.step run=1594
.step run=1595
.step run=1596
.step run=1597
.step run=1598
.step run=1599
.step run=1600
.step run=1601
.step run=1602
.step run=1603
.step run=1604
.step run=1605
.step run=1606
.step run=1607
.step run=1608
.step run=1609
.step run=1610
.step run=1611
.step run=1612
.step run=1613
.step run=1614
.step run=1615
.step run=1616
.step run=1617
.step run=1618
.step run=1619
.step run=1620
.step run=1621
.step run=1622
.step run=1623
.step run=1624
.step run=1625
.step run=1626
.step run=1627
.step run=1628
.step run=1629
.step run=1630
.step run=1631
.step run=1632
.step run=1633
.step run=1634
.step run=1635
.step run=1636
.step run=1637
.step run=1638
.step run=1639
.step run=1640
.step run=1641
.step run=1642
.step run=1643
.step run=1644
.step run=1645
.step run=1646
.step run=1647
.step run=1648
.step run=1649
.step run=1650
.step run=1651
.step run=1652
.step run=1653
.step run=1654
.step run=1655
.step run=1656
.step run=1657
.step run=1658
.step run=1659
.step run=1660
.step run=1661
.step run=1662
.step run=1663
.step run=1664
.step run=1665
.step run=1666
.step run=1667
.step run=1668
.step run=1669
.step run=1670
.step run=1671
.step run=1672
.step run=1673
.step run=1674
.step run=1675
.step run=1676
.step run=1677
.step run=1678
.step run=1679
.step run=1680
.step run=1681
.step run=1682
.step run=1683
.step run=1684
.step run=1685
.step run=1686
.step run=1687
.step run=1688
.step run=1689
.step run=1690
.step run=1691
.step run=1692
.step run=1693
.step run=1694
.step run=1695
.step run=1696
.step run=1697
.step run=1698
.step run=1699
.step run=1700
.step run=1701
.step run=1702
.step run=1703
.step run=1704
.step run=1705
.step run=1706
.step run=1707
.step run=1708
.step run=1709
.step run=1710
.step run=1711
.step run=1712
.step run=1713
.step run=1714
.step run=1715
.step run=1716
.step run=1717
.step run=1718
.step run=1719
.step run=1720
.step run=1721
.step run=1722
.step run=1723
.step run=1724
.step run=1725
.step run=1726
.step run=1727
.step run=1728
.step run=1729
.step run=1730
.step run=1731
.step run=1732
.step run=1733
.step run=1734
.step run=1735
.step run=1736
.step run=1737
.step run=1738
.step run=1739
.step run=1740
.step run=1741
.step run=1742
.step run=1743
.step run=1744
.step run=1745
.step run=1746
.step run=1747
.step run=1748
.step run=1749
.step run=1750
.step run=1751
.step run=1752
.step run=1753
.step run=1754
.step run=1755
.step run=1756
.step run=1757
.step run=1758
.step run=1759
.step run=1760
.step run=1761
.step run=1762
.step run=1763
.step run=1764
.step run=1765
.step run=1766
.step run=1767
.step run=1768
.step run=1769
.step run=1770
.step run=1771
.step run=1772
.step run=1773
.step run=1774
.step run=1775
.step run=1776
.step run=1777
.step run=1778
.step run=1779
.step run=1780
.step run=1781
.step run=1782
.step run=1783
.step run=1784
.step run=1785
.step run=1786
.step run=1787
.step run=1788
.step run=1789
.step run=1790
.step run=1791
.step run=1792
.step run=1793
.step run=1794
.step run=1795
.step run=1796
.step run=1797
.step run=1798
.step run=1799
.step run=1800
.step run=1801
.step run=1802
.step run=1803
.step run=1804
.step run=1805
.step run=1806
.step run=1807
.step run=1808
.step run=1809
.step run=1810
.step run=1811
.step run=1812
.step run=1813
.step run=1814
.step run=1815
.step run=1816
.step run=1817
.step run=1818
.step run=1819
.step run=1820
.step run=1821
.step run=1822
.step run=1823
.step run=1824
.step run=1825
.step run=1826
.step run=1827
.step run=1828
.step run=1829
.step run=1830
.step run=1831
.step run=1832
.step run=1833
.step run=1834
.step run=1835
.step run=1836
.step run=1837
.step run=1838
.step run=1839
.step run=1840
.step run=1841
.step run=1842
.step run=1843
.step run=1844
.step run=1845
.step run=1846
.step run=1847
.step run=1848
.step run=1849
.step run=1850
.step run=1851
.step run=1852
.step run=1853
.step run=1854
.step run=1855
.step run=1856
.step run=1857
.step run=1858
.step run=1859
.step run=1860
.step run=1861
.step run=1862
.step run=1863
.step run=1864
.step run=1865
.step run=1866
.step run=1867
.step run=1868
.step run=1869
.step run=1870
.step run=1871
.step run=1872
.step run=1873
.step run=1874
.step run=1875
.step run=1876
.step run=1877
.step run=1878
.step run=1879
.step run=1880
.step run=1881
.step run=1882
.step run=1883
.step run=1884
.step run=1885
.step run=1886
.step run=1887
.step run=1888
.step run=1889
.step run=1890
.step run=1891
.step run=1892
.step run=1893
.step run=1894
.step run=1895
.step run=1896
.step run=1897
.step run=1898
.step run=1899
.step run=1900
.step run=1901
.step run=1902
.step run=1903
.step run=1904
.step run=1905
.step run=1906
.step run=1907
.step run=1908
.step run=1909
.step run=1910
.step run=1911
.step run=1912
.step run=1913
.step run=1914
.step run=1915
.step run=1916
.step run=1917
.step run=1918
.step run=1919
.step run=1920
.step run=1921
.step run=1922
.step run=1923
.step run=1924
.step run=1925
.step run=1926
.step run=1927
.step run=1928
.step run=1929
.step run=1930
.step run=1931
.step run=1932
.step run=1933
.step run=1934
.step run=1935
.step run=1936
.step run=1937
.step run=1938
.step run=1939
.step run=1940
.step run=1941
.step run=1942
.step run=1943
.step run=1944
.step run=1945
.step run=1946
.step run=1947
.step run=1948
.step run=1949
.step run=1950
.step run=1951
.step run=1952
.step run=1953
.step run=1954
.step run=1955
.step run=1956
.step run=1957
.step run=1958
.step run=1959
.step run=1960
.step run=1961
.step run=1962
.step run=1963
.step run=1964
.step run=1965
.step run=1966
.step run=1967
.step run=1968
.step run=1969
.step run=1970
.step run=1971
.step run=1972
.step run=1973
.step run=1974
.step run=1975
.step run=1976
.step run=1977
.step run=1978
.step run=1979
.step run=1980
.step run=1981
.step run=1982
.step run=1983
.step run=1984
.step run=1985
.step run=1986
.step run=1987
.step run=1988
.step run=1989
.step run=1990
.step run=1991
.step run=1992
.step run=1993
.step run=1994
.step run=1995
.step run=1996
.step run=1997
.step run=1998
.step run=1999
.step run=2000
.step run=2001
.step run=2002
.step run=2003
.step run=2004
.step run=2005
.step run=2006
.step run=2007
.step run=2008
.step run=2009
.step run=2010
.step run=2011
.step run=2012
.step run=2013
.step run=2014
.step run=2015
.step run=2016
.step run=2017
.step run=2018
.step run=2019
.step run=2020
.step run=2021
.step run=2022
.step run=2023
.step run=2024
.step run=2025
.step run=2026
.step run=2027
.step run=2028
.step run=2029
.step run=2030
.step run=2031
.step run=2032
.step run=2033
.step run=2034
.step run=2035
.step run=2036
.step run=2037
.step run=2038
.step run=2039
.step run=2040
.step run=2041
.step run=2042
.step run=2043
.step run=2044
.step run=2045
.step run=2046
.step run=2047
.step run=2048
.step run=2049
.step run=2050
.step run=2051
.step run=2052
.step run=2053
.step run=2054
.step run=2055
.step run=2056
.step run=2057
.step run=2058
.step run=2059
.step run=2060
.step run=2061
.step run=2062
.step run=2063
.step run=2064
.step run=2065
.step run=2066
.step run=2067
.step run=2068
.step run=2069
.step run=2070
.step run=2071
.step run=2072
.step run=2073
.step run=2074
.step run=2075
.step run=2076
.step run=2077
.step run=2078
.step run=2079
.step run=2080
.step run=2081
.step run=2082
.step run=2083
.step run=2084
.step run=2085
.step run=2086
.step run=2087
.step run=2088
.step run=2089
.step run=2090
.step run=2091
.step run=2092
.step run=2093
.step run=2094
.step run=2095
.step run=2096
.step run=2097
.step run=2098
.step run=2099
.step run=2100
.step run=2101
.step run=2102
.step run=2103
.step run=2104
.step run=2105
.step run=2106
.step run=2107
.step run=2108
.step run=2109
.step run=2110
.step run=2111
.step run=2112
.step run=2113
.step run=2114
.step run=2115
.step run=2116
.step run=2117
.step run=2118
.step run=2119
.step run=2120
.step run=2121
.step run=2122
.step run=2123
.step run=2124
.step run=2125
.step run=2126
.step run=2127
.step run=2128
.step run=2129
.step run=2130
.step run=2131
.step run=2132
.step run=2133
.step run=2134
.step run=2135
.step run=2136
.step run=2137
.step run=2138
.step run=2139
.step run=2140
.step run=2141
.step run=2142
.step run=2143
.step run=2144
.step run=2145
.step run=2146
.step run=2147
.step run=2148
.step run=2149
.step run=2150
.step run=2151
.step run=2152
.step run=2153
.step run=2154
.step run=2155
.step run=2156
.step run=2157
.step run=2158
.step run=2159
.step run=2160
.step run=2161
.step run=2162
.step run=2163
.step run=2164
.step run=2165
.step run=2166
.step run=2167
.step run=2168
.step run=2169
.step run=2170
.step run=2171
.step run=2172
.step run=2173
.step run=2174
.step run=2175
.step run=2176
.step run=2177
.step run=2178
.step run=2179
.step run=2180
.step run=2181
.step run=2182
.step run=2183
.step run=2184
.step run=2185
.step run=2186
.step run=2187
.step run=2188
.step run=2189
.step run=2190
.step run=2191
.step run=2192
.step run=2193
.step run=2194
.step run=2195
.step run=2196
.step run=2197
.step run=2198
.step run=2199
.step run=2200
.step run=2201
.step run=2202
.step run=2203
.step run=2204
.step run=2205
.step run=2206
.step run=2207
.step run=2208
.step run=2209
.step run=2210
.step run=2211
.step run=2212
.step run=2213
.step run=2214
.step run=2215
.step run=2216
.step run=2217
.step run=2218
.step run=2219
.step run=2220
.step run=2221
.step run=2222
.step run=2223
.step run=2224
.step run=2225
.step run=2226
.step run=2227
.step run=2228
.step run=2229
.step run=2230
.step run=2231
.step run=2232
.step run=2233
.step run=2234
.step run=2235
.step run=2236
.step run=2237
.step run=2238
.step run=2239
.step run=2240
.step run=2241
.step run=2242
.step run=2243
.step run=2244
.step run=2245
.step run=2246
.step run=2247
.step run=2248
.step run=2249
.step run=2250
.step run=2251
.step run=2252
.step run=2253
.step run=2254
.step run=2255
.step run=2256
.step run=2257
.step run=2258
.step run=2259
.step run=2260
.step run=2261
.step run=2262
.step run=2263
.step run=2264
.step run=2265
.step run=2266
.step run=2267
.step run=2268
.step run=2269
.step run=2270
.step run=2271
.step run=2272
.step run=2273
.step run=2274
.step run=2275
.step run=2276
.step run=2277
.step run=2278
.step run=2279
.step run=2280
.step run=2281
.step run=2282
.step run=2283
.step run=2284
.step run=2285
.step run=2286
.step run=2287
.step run=2288
.step run=2289
.step run=2290
.step run=2291
.step run=2292
.step run=2293
.step run=2294
.step run=2295
.step run=2296
.step run=2297
.step run=2298
.step run=2299
.step run=2300
.step run=2301
.step run=2302
.step run=2303
.step run=2304
.step run=2305
.step run=2306
.step run=2307
.step run=2308
.step run=2309
.step run=2310
.step run=2311
.step run=2312
.step run=2313
.step run=2314
.step run=2315
.step run=2316
.step run=2317
.step run=2318
.step run=2319
.step run=2320
.step run=2321
.step run=2322
.step run=2323
.step run=2324
.step run=2325
.step run=2326
.step run=2327
.step run=2328
.step run=2329
.step run=2330
.step run=2331
.step run=2332
.step run=2333
.step run=2334
.step run=2335
.step run=2336
.step run=2337
.step run=2338
.step run=2339
.step run=2340
.step run=2341
.step run=2342
.step run=2343
.step run=2344
.step run=2345
.step run=2346
.step run=2347
.step run=2348
.step run=2349
.step run=2350
.step run=2351
.step run=2352
.step run=2353
.step run=2354
.step run=2355
.step run=2356
.step run=2357
.step run=2358
.step run=2359
.step run=2360
.step run=2361
.step run=2362
.step run=2363
.step run=2364
.step run=2365
.step run=2366
.step run=2367
.step run=2368
.step run=2369
.step run=2370
.step run=2371
.step run=2372
.step run=2373
.step run=2374
.step run=2375
.step run=2376
.step run=2377
.step run=2378
.step run=2379
.step run=2380
.step run=2381
.step run=2382
.step run=2383
.step run=2384
.step run=2385
.step run=2386
.step run=2387
.step run=2388
.step run=2389
.step run=2390
.step run=2391
.step run=2392
.step run=2393
.step run=2394
.step run=2395
.step run=2396
.step run=2397
.step run=2398
.step run=2399
.step run=2400
.step run=2401
.step run=2402
.step run=2403
.step run=2404
.step run=2405
.step run=2406
.step run=2407
.step run=2408
.step run=2409
.step run=2410
.step run=2411
.step run=2412
.step run=2413
.step run=2414
.step run=2415
.step run=2416
.step run=2417
.step run=2418
.step run=2419
.step run=2420
.step run=2421
.step run=2422
.step run=2423
.step run=2424
.step run=2425
.step run=2426
.step run=2427
.step run=2428
.step run=2429
.step run=2430
.step run=2431
.step run=2432
.step run=2433
.step run=2434
.step run=2435
.step run=2436
.step run=2437
.step run=2438
.step run=2439
.step run=2440
.step run=2441
.step run=2442
.step run=2443
.step run=2444
.step run=2445
.step run=2446
.step run=2447
.step run=2448
.step run=2449
.step run=2450
.step run=2451
.step run=2452
.step run=2453
.step run=2454
.step run=2455
.step run=2456
.step run=2457
.step run=2458
.step run=2459
.step run=2460
.step run=2461
.step run=2462
.step run=2463
.step run=2464
.step run=2465
.step run=2466
.step run=2467
.step run=2468
.step run=2469
.step run=2470
.step run=2471
.step run=2472
.step run=2473
.step run=2474
.step run=2475
.step run=2476
.step run=2477
.step run=2478
.step run=2479
.step run=2480
.step run=2481
.step run=2482
.step run=2483
.step run=2484
.step run=2485
.step run=2486
.step run=2487
.step run=2488
.step run=2489
.step run=2490
.step run=2491
.step run=2492
.step run=2493
.step run=2494
.step run=2495
.step run=2496
.step run=2497
.step run=2498
.step run=2499
.step run=2500
.step run=2501
.step run=2502
.step run=2503
.step run=2504
.step run=2505
.step run=2506
.step run=2507
.step run=2508
.step run=2509
.step run=2510
.step run=2511
.step run=2512
.step run=2513
.step run=2514
.step run=2515
.step run=2516
.step run=2517
.step run=2518
.step run=2519
.step run=2520
.step run=2521
.step run=2522
.step run=2523
.step run=2524
.step run=2525
.step run=2526
.step run=2527
.step run=2528
.step run=2529
.step run=2530
.step run=2531
.step run=2532
.step run=2533
.step run=2534
.step run=2535
.step run=2536
.step run=2537
.step run=2538
.step run=2539
.step run=2540
.step run=2541
.step run=2542
.step run=2543
.step run=2544
.step run=2545
.step run=2546
.step run=2547
.step run=2548
.step run=2549
.step run=2550
.step run=2551
.step run=2552
.step run=2553
.step run=2554
.step run=2555
.step run=2556
.step run=2557
.step run=2558
.step run=2559
.step run=2560
.step run=2561
.step run=2562
.step run=2563
.step run=2564
.step run=2565
.step run=2566
.step run=2567
.step run=2568
.step run=2569
.step run=2570
.step run=2571
.step run=2572
.step run=2573
.step run=2574
.step run=2575
.step run=2576
.step run=2577
.step run=2578
.step run=2579
.step run=2580
.step run=2581
.step run=2582
.step run=2583
.step run=2584
.step run=2585
.step run=2586
.step run=2587
.step run=2588
.step run=2589
.step run=2590
.step run=2591
.step run=2592
.step run=2593
.step run=2594
.step run=2595
.step run=2596
.step run=2597
.step run=2598
.step run=2599
.step run=2600
.step run=2601
.step run=2602
.step run=2603
.step run=2604
.step run=2605
.step run=2606
.step run=2607
.step run=2608
.step run=2609
.step run=2610
.step run=2611
.step run=2612
.step run=2613
.step run=2614
.step run=2615
.step run=2616
.step run=2617
.step run=2618
.step run=2619
.step run=2620
.step run=2621
.step run=2622
.step run=2623
.step run=2624
.step run=2625
.step run=2626
.step run=2627
.step run=2628
.step run=2629
.step run=2630
.step run=2631
.step run=2632
.step run=2633
.step run=2634
.step run=2635
.step run=2636
.step run=2637
.step run=2638
.step run=2639
.step run=2640
.step run=2641
.step run=2642
.step run=2643
.step run=2644
.step run=2645
.step run=2646
.step run=2647
.step run=2648
.step run=2649
.step run=2650
.step run=2651
.step run=2652
.step run=2653
.step run=2654
.step run=2655
.step run=2656
.step run=2657
.step run=2658
.step run=2659
.step run=2660
.step run=2661
.step run=2662
.step run=2663
.step run=2664
.step run=2665
.step run=2666
.step run=2667
.step run=2668
.step run=2669
.step run=2670
.step run=2671
.step run=2672
.step run=2673
.step run=2674
.step run=2675
.step run=2676
.step run=2677
.step run=2678
.step run=2679
.step run=2680
.step run=2681
.step run=2682
.step run=2683
.step run=2684
.step run=2685
.step run=2686
.step run=2687
.step run=2688
.step run=2689
.step run=2690
.step run=2691
.step run=2692
.step run=2693
.step run=2694
.step run=2695
.step run=2696
.step run=2697
.step run=2698
.step run=2699
.step run=2700
.step run=2701
.step run=2702
.step run=2703
.step run=2704
.step run=2705
.step run=2706
.step run=2707
.step run=2708
.step run=2709
.step run=2710
.step run=2711
.step run=2712
.step run=2713
.step run=2714
.step run=2715
.step run=2716
.step run=2717
.step run=2718
.step run=2719
.step run=2720
.step run=2721
.step run=2722
.step run=2723
.step run=2724
.step run=2725
.step run=2726
.step run=2727
.step run=2728
.step run=2729
.step run=2730
.step run=2731
.step run=2732
.step run=2733
.step run=2734
.step run=2735
.step run=2736
.step run=2737
.step run=2738
.step run=2739
.step run=2740
.step run=2741
.step run=2742
.step run=2743
.step run=2744
.step run=2745
.step run=2746
.step run=2747
.step run=2748
.step run=2749
.step run=2750
.step run=2751
.step run=2752
.step run=2753
.step run=2754
.step run=2755
.step run=2756
.step run=2757
.step run=2758
.step run=2759
.step run=2760
.step run=2761
.step run=2762
.step run=2763
.step run=2764
.step run=2765
.step run=2766
.step run=2767
.step run=2768
.step run=2769
.step run=2770
.step run=2771
.step run=2772
.step run=2773
.step run=2774
.step run=2775
.step run=2776
.step run=2777
.step run=2778
.step run=2779
.step run=2780
.step run=2781
.step run=2782
.step run=2783
.step run=2784
.step run=2785
.step run=2786
.step run=2787
.step run=2788
.step run=2789
.step run=2790
.step run=2791
.step run=2792
.step run=2793
.step run=2794
.step run=2795
.step run=2796
.step run=2797
.step run=2798
.step run=2799
.step run=2800
.step run=2801
.step run=2802
.step run=2803
.step run=2804
.step run=2805
.step run=2806
.step run=2807
.step run=2808
.step run=2809
.step run=2810
.step run=2811
.step run=2812
.step run=2813
.step run=2814
.step run=2815
.step run=2816
.step run=2817
.step run=2818
.step run=2819
.step run=2820
.step run=2821
.step run=2822
.step run=2823
.step run=2824
.step run=2825
.step run=2826
.step run=2827
.step run=2828
.step run=2829
.step run=2830
.step run=2831
.step run=2832
.step run=2833
.step run=2834
.step run=2835
.step run=2836
.step run=2837
.step run=2838
.step run=2839
.step run=2840
.step run=2841
.step run=2842
.step run=2843
.step run=2844
.step run=2845
.step run=2846
.step run=2847
.step run=2848
.step run=2849
.step run=2850
.step run=2851
.step run=2852
.step run=2853
.step run=2854
.step run=2855
.step run=2856
.step run=2857
.step run=2858
.step run=2859
.step run=2860
.step run=2861
.step run=2862
.step run=2863
.step run=2864
.step run=2865
.step run=2866
.step run=2867
.step run=2868
.step run=2869
.step run=2870
.step run=2871
.step run=2872
.step run=2873
.step run=2874
.step run=2875
.step run=2876
.step run=2877
.step run=2878
.step run=2879
.step run=2880
.step run=2881
.step run=2882
.step run=2883
.step run=2884
.step run=2885
.step run=2886
.step run=2887
.step run=2888
.step run=2889
.step run=2890
.step run=2891
.step run=2892
.step run=2893
.step run=2894
.step run=2895
.step run=2896
.step run=2897
.step run=2898
.step run=2899
.step run=2900
.step run=2901
.step run=2902
.step run=2903
.step run=2904
.step run=2905
.step run=2906
.step run=2907
.step run=2908
.step run=2909
.step run=2910
.step run=2911
.step run=2912
.step run=2913
.step run=2914
.step run=2915
.step run=2916
.step run=2917
.step run=2918
.step run=2919
.step run=2920
.step run=2921
.step run=2922
.step run=2923
.step run=2924
.step run=2925
.step run=2926
.step run=2927
.step run=2928
.step run=2929
.step run=2930
.step run=2931
.step run=2932
.step run=2933
.step run=2934
.step run=2935
.step run=2936
.step run=2937
.step run=2938
.step run=2939
.step run=2940
.step run=2941
.step run=2942
.step run=2943
.step run=2944
.step run=2945
.step run=2946
.step run=2947
.step run=2948
.step run=2949
.step run=2950
.step run=2951
.step run=2952
.step run=2953
.step run=2954
.step run=2955
.step run=2956
.step run=2957
.step run=2958
.step run=2959
.step run=2960
.step run=2961
.step run=2962
.step run=2963
.step run=2964
.step run=2965
.step run=2966
.step run=2967
.step run=2968
.step run=2969
.step run=2970
.step run=2971
.step run=2972
.step run=2973
.step run=2974
.step run=2975
.step run=2976
.step run=2977
.step run=2978
.step run=2979
.step run=2980
.step run=2981
.step run=2982
.step run=2983
.step run=2984
.step run=2985
.step run=2986
.step run=2987
.step run=2988
.step run=2989
.step run=2990
.step run=2991
.step run=2992
.step run=2993
.step run=2994
.step run=2995
.step run=2996
.step run=2997
.step run=2998
.step run=2999
.step run=3000
.step run=3001
.step run=3002
.step run=3003
.step run=3004
.step run=3005
.step run=3006
.step run=3007
.step run=3008
.step run=3009
.step run=3010
.step run=3011
.step run=3012
.step run=3013
.step run=3014
.step run=3015
.step run=3016
.step run=3017
.step run=3018
.step run=3019
.step run=3020
.step run=3021
.step run=3022
.step run=3023
.step run=3024
.step run=3025
.step run=3026
.step run=3027
.step run=3028
.step run=3029
.step run=3030
.step run=3031
.step run=3032
.step run=3033
.step run=3034
.step run=3035
.step run=3036
.step run=3037
.step run=3038
.step run=3039
.step run=3040
.step run=3041
.step run=3042
.step run=3043
.step run=3044
.step run=3045
.step run=3046
.step run=3047
.step run=3048
.step run=3049
.step run=3050
.step run=3051
.step run=3052
.step run=3053
.step run=3054
.step run=3055
.step run=3056
.step run=3057
.step run=3058
.step run=3059
.step run=3060
.step run=3061
.step run=3062
.step run=3063
.step run=3064
.step run=3065
.step run=3066
.step run=3067
.step run=3068
.step run=3069
.step run=3070
.step run=3071
.step run=3072
.step run=3073
.step run=3074
.step run=3075
.step run=3076
.step run=3077
.step run=3078
.step run=3079
.step run=3080
.step run=3081
.step run=3082
.step run=3083
.step run=3084
.step run=3085
.step run=3086
.step run=3087
.step run=3088
.step run=3089
.step run=3090
.step run=3091
.step run=3092
.step run=3093
.step run=3094
.step run=3095
.step run=3096
.step run=3097
.step run=3098
.step run=3099
.step run=3100
.step run=3101
.step run=3102
.step run=3103
.step run=3104
.step run=3105
.step run=3106
.step run=3107
.step run=3108
.step run=3109
.step run=3110
.step run=3111
.step run=3112
.step run=3113
.step run=3114
.step run=3115
.step run=3116
.step run=3117
.step run=3118
.step run=3119
.step run=3120
.step run=3121
.step run=3122
.step run=3123
.step run=3124
.step run=3125
.step run=3126
.step run=3127
.step run=3128
.step run=3129
.step run=3130
.step run=3131
.step run=3132
.step run=3133
.step run=3134
.step run=3135
.step run=3136
.step run=3137
.step run=3138
.step run=3139
.step run=3140
.step run=3141
.step run=3142
.step run=3143
.step run=3144
.step run=3145
.step run=3146
.step run=3147
.step run=3148
.step run=3149
.step run=3150
.step run=3151
.step run=3152
.step run=3153
.step run=3154
.step run=3155
.step run=3156
.step run=3157
.step run=3158
.step run=3159
.step run=3160
.step run=3161
.step run=3162
.step run=3163
.step run=3164
.step run=3165
.step run=3166
.step run=3167
.step run=3168
.step run=3169
.step run=3170
.step run=3171
.step run=3172
.step run=3173
.step run=3174
.step run=3175
.step run=3176
.step run=3177
.step run=3178
.step run=3179
.step run=3180
.step run=3181
.step run=3182
.step run=3183
.step run=3184
.step run=3185
.step run=3186
.step run=3187
.step run=3188
.step run=3189
.step run=3190
.step run=3191
.step run=3192
.step run=3193
.step run=3194
.step run=3195
.step run=3196
.step run=3197
.step run=3198
.step run=3199
.step run=3200
.step run=3201
.step run=3202
.step run=3203
.step run=3204
.step run=3205
.step run=3206
.step run=3207
.step run=3208
.step run=3209
.step run=3210
.step run=3211
.step run=3212
.step run=3213
.step run=3214
.step run=3215
.step run=3216
.step run=3217
.step run=3218
.step run=3219
.step run=3220
.step run=3221
.step run=3222
.step run=3223
.step run=3224
.step run=3225
.step run=3226
.step run=3227
.step run=3228
.step run=3229
.step run=3230
.step run=3231
.step run=3232
.step run=3233
.step run=3234
.step run=3235
.step run=3236
.step run=3237
.step run=3238
.step run=3239
.step run=3240
.step run=3241
.step run=3242
.step run=3243
.step run=3244
.step run=3245
.step run=3246
.step run=3247
.step run=3248
.step run=3249
.step run=3250
.step run=3251
.step run=3252
.step run=3253
.step run=3254
.step run=3255
.step run=3256
.step run=3257
.step run=3258
.step run=3259
.step run=3260
.step run=3261
.step run=3262
.step run=3263
.step run=3264
.step run=3265
.step run=3266
.step run=3267
.step run=3268
.step run=3269
.step run=3270
.step run=3271
.step run=3272
.step run=3273
.step run=3274
.step run=3275
.step run=3276
.step run=3277
.step run=3278
.step run=3279
.step run=3280
.step run=3281
.step run=3282
.step run=3283
.step run=3284
.step run=3285
.step run=3286
.step run=3287
.step run=3288
.step run=3289
.step run=3290
.step run=3291
.step run=3292
.step run=3293
.step run=3294
.step run=3295
.step run=3296
.step run=3297
.step run=3298
.step run=3299
.step run=3300
.step run=3301
.step run=3302
.step run=3303
.step run=3304
.step run=3305
.step run=3306
.step run=3307
.step run=3308
.step run=3309
.step run=3310
.step run=3311
.step run=3312
.step run=3313
.step run=3314
.step run=3315
.step run=3316
.step run=3317
.step run=3318
.step run=3319
.step run=3320
.step run=3321
.step run=3322
.step run=3323
.step run=3324
.step run=3325
.step run=3326
.step run=3327
.step run=3328
.step run=3329
.step run=3330
.step run=3331
.step run=3332
.step run=3333
.step run=3334
.step run=3335
.step run=3336
.step run=3337
.step run=3338
.step run=3339
.step run=3340
.step run=3341
.step run=3342
.step run=3343
.step run=3344
.step run=3345
.step run=3346
.step run=3347
.step run=3348
.step run=3349
.step run=3350
.step run=3351
.step run=3352
.step run=3353
.step run=3354
.step run=3355
.step run=3356
.step run=3357
.step run=3358
.step run=3359
.step run=3360
.step run=3361
.step run=3362
.step run=3363
.step run=3364
.step run=3365
.step run=3366
.step run=3367
.step run=3368
.step run=3369
.step run=3370
.step run=3371
.step run=3372
.step run=3373
.step run=3374
.step run=3375
.step run=3376
.step run=3377
.step run=3378
.step run=3379
.step run=3380
.step run=3381
.step run=3382
.step run=3383
.step run=3384
.step run=3385
.step run=3386
.step run=3387
.step run=3388
.step run=3389
.step run=3390
.step run=3391
.step run=3392
.step run=3393
.step run=3394
.step run=3395
.step run=3396
.step run=3397
.step run=3398
.step run=3399
.step run=3400
.step run=3401
.step run=3402
.step run=3403
.step run=3404
.step run=3405
.step run=3406
.step run=3407
.step run=3408
.step run=3409
.step run=3410
.step run=3411
.step run=3412
.step run=3413
.step run=3414
.step run=3415
.step run=3416
.step run=3417
.step run=3418
.step run=3419
.step run=3420
.step run=3421
.step run=3422
.step run=3423
.step run=3424
.step run=3425
.step run=3426
.step run=3427
.step run=3428
.step run=3429
.step run=3430
.step run=3431
.step run=3432
.step run=3433
.step run=3434
.step run=3435
.step run=3436
.step run=3437
.step run=3438
.step run=3439
.step run=3440
.step run=3441
.step run=3442
.step run=3443
.step run=3444
.step run=3445
.step run=3446
.step run=3447
.step run=3448
.step run=3449
.step run=3450
.step run=3451
.step run=3452
.step run=3453
.step run=3454
.step run=3455
.step run=3456
.step run=3457
.step run=3458
.step run=3459
.step run=3460
.step run=3461
.step run=3462
.step run=3463
.step run=3464
.step run=3465
.step run=3466
.step run=3467
.step run=3468
.step run=3469
.step run=3470
.step run=3471
.step run=3472
.step run=3473
.step run=3474
.step run=3475
.step run=3476
.step run=3477
.step run=3478
.step run=3479
.step run=3480
.step run=3481
.step run=3482
.step run=3483
.step run=3484
.step run=3485
.step run=3486
.step run=3487
.step run=3488
.step run=3489
.step run=3490
.step run=3491
.step run=3492
.step run=3493
.step run=3494
.step run=3495
.step run=3496
.step run=3497
.step run=3498
.step run=3499
.step run=3500
.step run=3501
.step run=3502
.step run=3503
.step run=3504
.step run=3505
.step run=3506
.step run=3507
.step run=3508
.step run=3509
.step run=3510
.step run=3511
.step run=3512
.step run=3513
.step run=3514
.step run=3515
.step run=3516
.step run=3517
.step run=3518
.step run=3519
.step run=3520
.step run=3521
.step run=3522
.step run=3523
.step run=3524
.step run=3525
.step run=3526
.step run=3527
.step run=3528
.step run=3529
.step run=3530
.step run=3531
.step run=3532
.step run=3533
.step run=3534
.step run=3535
.step run=3536
.step run=3537
.step run=3538
.step run=3539
.step run=3540
.step run=3541
.step run=3542
.step run=3543
.step run=3544
.step run=3545
.step run=3546
.step run=3547
.step run=3548
.step run=3549
.step run=3550
.step run=3551
.step run=3552
.step run=3553
.step run=3554
.step run=3555
.step run=3556
.step run=3557
.step run=3558
.step run=3559
.step run=3560
.step run=3561
.step run=3562
.step run=3563
.step run=3564
.step run=3565
.step run=3566
.step run=3567
.step run=3568
.step run=3569
.step run=3570
.step run=3571
.step run=3572
.step run=3573
.step run=3574
.step run=3575
.step run=3576
.step run=3577
.step run=3578
.step run=3579
.step run=3580
.step run=3581
.step run=3582
.step run=3583
.step run=3584
.step run=3585
.step run=3586
.step run=3587
.step run=3588
.step run=3589
.step run=3590
.step run=3591
.step run=3592
.step run=3593
.step run=3594
.step run=3595
.step run=3596
.step run=3597
.step run=3598
.step run=3599
.step run=3600
.step run=3601
.step run=3602
.step run=3603
.step run=3604
.step run=3605
.step run=3606
.step run=3607
.step run=3608
.step run=3609
.step run=3610
.step run=3611
.step run=3612
.step run=3613
.step run=3614
.step run=3615
.step run=3616
.step run=3617
.step run=3618
.step run=3619
.step run=3620
.step run=3621
.step run=3622
.step run=3623
.step run=3624
.step run=3625
.step run=3626
.step run=3627
.step run=3628
.step run=3629
.step run=3630
.step run=3631
.step run=3632
.step run=3633
.step run=3634
.step run=3635
.step run=3636
.step run=3637
.step run=3638
.step run=3639
.step run=3640
.step run=3641
.step run=3642
.step run=3643
.step run=3644
.step run=3645
.step run=3646
.step run=3647
.step run=3648
.step run=3649
.step run=3650
.step run=3651
.step run=3652
.step run=3653
.step run=3654
.step run=3655
.step run=3656
.step run=3657
.step run=3658
.step run=3659
.step run=3660
.step run=3661
.step run=3662
.step run=3663
.step run=3664
.step run=3665
.step run=3666
.step run=3667
.step run=3668
.step run=3669
.step run=3670
.step run=3671
.step run=3672
.step run=3673
.step run=3674
.step run=3675
.step run=3676
.step run=3677
.step run=3678
.step run=3679
.step run=3680
.step run=3681
.step run=3682
.step run=3683
.step run=3684
.step run=3685
.step run=3686
.step run=3687
.step run=3688
.step run=3689
.step run=3690
.step run=3691
.step run=3692
.step run=3693
.step run=3694
.step run=3695
.step run=3696
.step run=3697
.step run=3698
.step run=3699
.step run=3700
.step run=3701
.step run=3702
.step run=3703
.step run=3704
.step run=3705
.step run=3706
.step run=3707
.step run=3708
.step run=3709
.step run=3710
.step run=3711
.step run=3712
.step run=3713
.step run=3714
.step run=3715
.step run=3716
.step run=3717
.step run=3718
.step run=3719
.step run=3720
.step run=3721
.step run=3722
.step run=3723
.step run=3724
.step run=3725
.step run=3726
.step run=3727
.step run=3728
.step run=3729
.step run=3730
.step run=3731
.step run=3732
.step run=3733
.step run=3734
.step run=3735
.step run=3736
.step run=3737
.step run=3738
.step run=3739
.step run=3740
.step run=3741
.step run=3742
.step run=3743
.step run=3744
.step run=3745
.step run=3746
.step run=3747
.step run=3748
.step run=3749
.step run=3750
.step run=3751
.step run=3752
.step run=3753
.step run=3754
.step run=3755
.step run=3756
.step run=3757
.step run=3758
.step run=3759
.step run=3760
.step run=3761
.step run=3762
.step run=3763
.step run=3764
.step run=3765
.step run=3766
.step run=3767
.step run=3768
.step run=3769
.step run=3770
.step run=3771
.step run=3772
.step run=3773
.step run=3774
.step run=3775
.step run=3776
.step run=3777
.step run=3778
.step run=3779
.step run=3780
.step run=3781
.step run=3782
.step run=3783
.step run=3784
.step run=3785
.step run=3786
.step run=3787
.step run=3788
.step run=3789
.step run=3790
.step run=3791
.step run=3792
.step run=3793
.step run=3794
.step run=3795
.step run=3796
.step run=3797
.step run=3798
.step run=3799
.step run=3800
.step run=3801
.step run=3802
.step run=3803
.step run=3804
.step run=3805
.step run=3806
.step run=3807
.step run=3808
.step run=3809
.step run=3810
.step run=3811
.step run=3812
.step run=3813
.step run=3814
.step run=3815
.step run=3816
.step run=3817
.step run=3818
.step run=3819
.step run=3820
.step run=3821
.step run=3822
.step run=3823
.step run=3824
.step run=3825
.step run=3826
.step run=3827
.step run=3828
.step run=3829
.step run=3830
.step run=3831
.step run=3832
.step run=3833
.step run=3834
.step run=3835
.step run=3836
.step run=3837
.step run=3838
.step run=3839
.step run=3840
.step run=3841
.step run=3842
.step run=3843
.step run=3844
.step run=3845
.step run=3846
.step run=3847
.step run=3848
.step run=3849
.step run=3850
.step run=3851
.step run=3852
.step run=3853
.step run=3854
.step run=3855
.step run=3856
.step run=3857
.step run=3858
.step run=3859
.step run=3860
.step run=3861
.step run=3862
.step run=3863
.step run=3864
.step run=3865
.step run=3866
.step run=3867
.step run=3868
.step run=3869
.step run=3870
.step run=3871
.step run=3872
.step run=3873
.step run=3874
.step run=3875
.step run=3876
.step run=3877
.step run=3878
.step run=3879
.step run=3880
.step run=3881
.step run=3882
.step run=3883
.step run=3884
.step run=3885
.step run=3886
.step run=3887
.step run=3888
.step run=3889
.step run=3890
.step run=3891
.step run=3892
.step run=3893
.step run=3894
.step run=3895
.step run=3896
.step run=3897
.step run=3898
.step run=3899
.step run=3900
.step run=3901
.step run=3902
.step run=3903
.step run=3904
.step run=3905
.step run=3906
.step run=3907
.step run=3908
.step run=3909
.step run=3910
.step run=3911
.step run=3912
.step run=3913
.step run=3914
.step run=3915
.step run=3916
.step run=3917
.step run=3918
.step run=3919
.step run=3920
.step run=3921
.step run=3922
.step run=3923
.step run=3924
.step run=3925
.step run=3926
.step run=3927
.step run=3928
.step run=3929
.step run=3930
.step run=3931
.step run=3932
.step run=3933
.step run=3934
.step run=3935
.step run=3936
.step run=3937
.step run=3938
.step run=3939
.step run=3940
.step run=3941
.step run=3942
.step run=3943
.step run=3944
.step run=3945
.step run=3946
.step run=3947
.step run=3948
.step run=3949
.step run=3950
.step run=3951
.step run=3952
.step run=3953
.step run=3954
.step run=3955
.step run=3956
.step run=3957
.step run=3958
.step run=3959
.step run=3960
.step run=3961
.step run=3962
.step run=3963
.step run=3964
.step run=3965
.step run=3966
.step run=3967
.step run=3968
.step run=3969
.step run=3970
.step run=3971
.step run=3972
.step run=3973
.step run=3974
.step run=3975
.step run=3976
.step run=3977
.step run=3978
.step run=3979
.step run=3980
.step run=3981
.step run=3982
.step run=3983
.step run=3984
.step run=3985
.step run=3986
.step run=3987
.step run=3988
.step run=3989
.step run=3990
.step run=3991
.step run=3992
.step run=3993
.step run=3994
.step run=3995
.step run=3996
.step run=3997
.step run=3998
.step run=3999
.step run=4000
.step run=4001
.step run=4002
.step run=4003
.step run=4004
.step run=4005
.step run=4006
.step run=4007
.step run=4008
.step run=4009
.step run=4010
.step run=4011
.step run=4012
.step run=4013
.step run=4014
.step run=4015
.step run=4016
.step run=4017
.step run=4018
.step run=4019
.step run=4020
.step run=4021
.step run=4022
.step run=4023
.step run=4024
.step run=4025
.step run=4026
.step run=4027
.step run=4028
.step run=4029
.step run=4030
.step run=4031
.step run=4032
.step run=4033
.step run=4034
.step run=4035
.step run=4036
.step run=4037
.step run=4038
.step run=4039
.step run=4040
.step run=4041
.step run=4042
.step run=4043
.step run=4044
.step run=4045
.step run=4046
.step run=4047
.step run=4048
.step run=4049
.step run=4050
.step run=4051
.step run=4052
.step run=4053
.step run=4054
.step run=4055
.step run=4056
.step run=4057
.step run=4058
.step run=4059
.step run=4060
.step run=4061
.step run=4062
.step run=4063
.step run=4064
.step run=4065
.step run=4066
.step run=4067
.step run=4068
.step run=4069
.step run=4070
.step run=4071
.step run=4072
.step run=4073
.step run=4074
.step run=4075
.step run=4076
.step run=4077
.step run=4078
.step run=4079
.step run=4080
.step run=4081
.step run=4082
.step run=4083
.step run=4084
.step run=4085
.step run=4086
.step run=4087
.step run=4088
.step run=4089
.step run=4090
.step run=4091
.step run=4092
.step run=4093
.step run=4094
.step run=4095
.step run=4096
.step run=4097
.step run=4098
.step run=4099
.step run=4100
.step run=4101
.step run=4102
.step run=4103
.step run=4104
.step run=4105
.step run=4106
.step run=4107
.step run=4108
.step run=4109
.step run=4110
.step run=4111
.step run=4112
.step run=4113
.step run=4114
.step run=4115
.step run=4116
.step run=4117
.step run=4118
.step run=4119
.step run=4120
.step run=4121
.step run=4122
.step run=4123
.step run=4124
.step run=4125
.step run=4126
.step run=4127
.step run=4128
.step run=4129
.step run=4130
.step run=4131
.step run=4132
.step run=4133
.step run=4134
.step run=4135
.step run=4136
.step run=4137
.step run=4138
.step run=4139
.step run=4140
.step run=4141
.step run=4142
.step run=4143
.step run=4144
.step run=4145
.step run=4146
.step run=4147
.step run=4148
.step run=4149
.step run=4150
.step run=4151
.step run=4152
.step run=4153
.step run=4154
.step run=4155
.step run=4156
.step run=4157
.step run=4158
.step run=4159
.step run=4160
.step run=4161
.step run=4162
.step run=4163
.step run=4164
.step run=4165
.step run=4166
.step run=4167
.step run=4168
.step run=4169
.step run=4170
.step run=4171
.step run=4172
.step run=4173
.step run=4174
.step run=4175
.step run=4176
.step run=4177
.step run=4178
.step run=4179
.step run=4180
.step run=4181
.step run=4182
.step run=4183
.step run=4184
.step run=4185
.step run=4186
.step run=4187
.step run=4188
.step run=4189
.step run=4190
.step run=4191
.step run=4192
.step run=4193
.step run=4194
.step run=4195
.step run=4196
.step run=4197
.step run=4198
.step run=4199
.step run=4200
.step run=4201
.step run=4202
.step run=4203
.step run=4204
.step run=4205
.step run=4206
.step run=4207
.step run=4208
.step run=4209
.step run=4210
.step run=4211
.step run=4212
.step run=4213
.step run=4214
.step run=4215
.step run=4216
.step run=4217
.step run=4218
.step run=4219
.step run=4220
.step run=4221
.step run=4222
.step run=4223
.step run=4224
.step run=4225
.step run=4226
.step run=4227
.step run=4228
.step run=4229
.step run=4230
.step run=4231
.step run=4232
.step run=4233
.step run=4234
.step run=4235
.step run=4236
.step run=4237
.step run=4238
.step run=4239
.step run=4240
.step run=4241
.step run=4242
.step run=4243
.step run=4244
.step run=4245
.step run=4246
.step run=4247
.step run=4248
.step run=4249
.step run=4250
.step run=4251
.step run=4252
.step run=4253
.step run=4254
.step run=4255
.step run=4256
.step run=4257
.step run=4258
.step run=4259
.step run=4260
.step run=4261
.step run=4262
.step run=4263
.step run=4264
.step run=4265
.step run=4266
.step run=4267
.step run=4268
.step run=4269
.step run=4270
.step run=4271
.step run=4272
.step run=4273
.step run=4274
.step run=4275
.step run=4276
.step run=4277
.step run=4278
.step run=4279
.step run=4280
.step run=4281
.step run=4282
.step run=4283
.step run=4284
.step run=4285
.step run=4286
.step run=4287
.step run=4288
.step run=4289
.step run=4290
.step run=4291
.step run=4292
.step run=4293
.step run=4294
.step run=4295
.step run=4296
.step run=4297
.step run=4298
.step run=4299
.step run=4300
.step run=4301
.step run=4302
.step run=4303
.step run=4304
.step run=4305
.step run=4306
.step run=4307
.step run=4308
.step run=4309
.step run=4310
.step run=4311
.step run=4312
.step run=4313
.step run=4314
.step run=4315
.step run=4316
.step run=4317
.step run=4318
.step run=4319
.step run=4320
.step run=4321
.step run=4322
.step run=4323
.step run=4324
.step run=4325
.step run=4326
.step run=4327
.step run=4328
.step run=4329
.step run=4330
.step run=4331
.step run=4332
.step run=4333
.step run=4334
.step run=4335
.step run=4336
.step run=4337
.step run=4338
.step run=4339
.step run=4340
.step run=4341
.step run=4342
.step run=4343
.step run=4344
.step run=4345
.step run=4346
.step run=4347
.step run=4348
.step run=4349
.step run=4350
.step run=4351
.step run=4352
.step run=4353
.step run=4354
.step run=4355
.step run=4356
.step run=4357
.step run=4358
.step run=4359
.step run=4360
.step run=4361
.step run=4362
.step run=4363
.step run=4364
.step run=4365
.step run=4366
.step run=4367
.step run=4368
.step run=4369
.step run=4370
.step run=4371
.step run=4372
.step run=4373
.step run=4374
.step run=4375
.step run=4376
.step run=4377
.step run=4378
.step run=4379
.step run=4380
.step run=4381
.step run=4382
.step run=4383
.step run=4384
.step run=4385
.step run=4386
.step run=4387
.step run=4388
.step run=4389
.step run=4390
.step run=4391
.step run=4392
.step run=4393
.step run=4394
.step run=4395
.step run=4396
.step run=4397
.step run=4398
.step run=4399
.step run=4400
.step run=4401
.step run=4402
.step run=4403
.step run=4404
.step run=4405
.step run=4406
.step run=4407
.step run=4408
.step run=4409
.step run=4410
.step run=4411
.step run=4412
.step run=4413
.step run=4414
.step run=4415
.step run=4416
.step run=4417
.step run=4418
.step run=4419
.step run=4420
.step run=4421
.step run=4422
.step run=4423
.step run=4424
.step run=4425
.step run=4426
.step run=4427
.step run=4428
.step run=4429
.step run=4430
.step run=4431
.step run=4432
.step run=4433
.step run=4434
.step run=4435
.step run=4436
.step run=4437
.step run=4438
.step run=4439
.step run=4440
.step run=4441
.step run=4442
.step run=4443
.step run=4444
.step run=4445
.step run=4446
.step run=4447
.step run=4448
.step run=4449
.step run=4450
.step run=4451
.step run=4452
.step run=4453
.step run=4454
.step run=4455
.step run=4456
.step run=4457
.step run=4458
.step run=4459
.step run=4460
.step run=4461
.step run=4462
.step run=4463
.step run=4464
.step run=4465
.step run=4466
.step run=4467
.step run=4468
.step run=4469
.step run=4470
.step run=4471
.step run=4472
.step run=4473
.step run=4474
.step run=4475
.step run=4476
.step run=4477
.step run=4478
.step run=4479
.step run=4480
.step run=4481
.step run=4482
.step run=4483
.step run=4484
.step run=4485
.step run=4486
.step run=4487
.step run=4488
.step run=4489
.step run=4490
.step run=4491
.step run=4492
.step run=4493
.step run=4494
.step run=4495
.step run=4496
.step run=4497
.step run=4498
.step run=4499
.step run=4500
.step run=4501
.step run=4502
.step run=4503
.step run=4504
.step run=4505
.step run=4506
.step run=4507
.step run=4508
.step run=4509
.step run=4510
.step run=4511
.step run=4512
.step run=4513
.step run=4514
.step run=4515
.step run=4516
.step run=4517
.step run=4518
.step run=4519
.step run=4520
.step run=4521
.step run=4522
.step run=4523
.step run=4524
.step run=4525
.step run=4526
.step run=4527
.step run=4528
.step run=4529
.step run=4530
.step run=4531
.step run=4532
.step run=4533
.step run=4534
.step run=4535
.step run=4536
.step run=4537
.step run=4538
.step run=4539
.step run=4540
.step run=4541
.step run=4542
.step run=4543
.step run=4544
.step run=4545
.step run=4546
.step run=4547
.step run=4548
.step run=4549
.step run=4550
.step run=4551
.step run=4552
.step run=4553
.step run=4554
.step run=4555
.step run=4556
.step run=4557
.step run=4558
.step run=4559
.step run=4560
.step run=4561
.step run=4562
.step run=4563
.step run=4564
.step run=4565
.step run=4566
.step run=4567
.step run=4568
.step run=4569
.step run=4570
.step run=4571
.step run=4572
.step run=4573
.step run=4574
.step run=4575
.step run=4576
.step run=4577
.step run=4578
.step run=4579
.step run=4580
.step run=4581
.step run=4582
.step run=4583
.step run=4584
.step run=4585
.step run=4586
.step run=4587
.step run=4588
.step run=4589
.step run=4590
.step run=4591
.step run=4592
.step run=4593
.step run=4594
.step run=4595
.step run=4596
.step run=4597
.step run=4598
.step run=4599
.step run=4600
.step run=4601
.step run=4602
.step run=4603
.step run=4604
.step run=4605
.step run=4606
.step run=4607
.step run=4608
.step run=4609
.step run=4610
.step run=4611
.step run=4612
.step run=4613
.step run=4614
.step run=4615
.step run=4616
.step run=4617
.step run=4618
.step run=4619
.step run=4620
.step run=4621
.step run=4622
.step run=4623
.step run=4624
.step run=4625
.step run=4626
.step run=4627
.step run=4628
.step run=4629
.step run=4630
.step run=4631
.step run=4632
.step run=4633
.step run=4634
.step run=4635
.step run=4636
.step run=4637
.step run=4638
.step run=4639
.step run=4640
.step run=4641
.step run=4642
.step run=4643
.step run=4644
.step run=4645
.step run=4646
.step run=4647
.step run=4648
.step run=4649
.step run=4650
.step run=4651
.step run=4652
.step run=4653
.step run=4654
.step run=4655
.step run=4656
.step run=4657
.step run=4658
.step run=4659
.step run=4660
.step run=4661
.step run=4662
.step run=4663
.step run=4664
.step run=4665
.step run=4666
.step run=4667
.step run=4668
.step run=4669
.step run=4670
.step run=4671
.step run=4672
.step run=4673
.step run=4674
.step run=4675
.step run=4676
.step run=4677
.step run=4678
.step run=4679
.step run=4680
.step run=4681
.step run=4682
.step run=4683
.step run=4684
.step run=4685
.step run=4686
.step run=4687
.step run=4688
.step run=4689
.step run=4690
.step run=4691
.step run=4692
.step run=4693
.step run=4694
.step run=4695
.step run=4696
.step run=4697
.step run=4698
.step run=4699
.step run=4700
.step run=4701
.step run=4702
.step run=4703
.step run=4704
.step run=4705
.step run=4706
.step run=4707
.step run=4708
.step run=4709
.step run=4710
.step run=4711
.step run=4712
.step run=4713
.step run=4714
.step run=4715
.step run=4716
.step run=4717
.step run=4718
.step run=4719
.step run=4720
.step run=4721
.step run=4722
.step run=4723
.step run=4724
.step run=4725
.step run=4726
.step run=4727
.step run=4728
.step run=4729
.step run=4730
.step run=4731
.step run=4732
.step run=4733
.step run=4734
.step run=4735
.step run=4736
.step run=4737
.step run=4738
.step run=4739
.step run=4740
.step run=4741
.step run=4742
.step run=4743
.step run=4744
.step run=4745
.step run=4746
.step run=4747
.step run=4748
.step run=4749
.step run=4750
.step run=4751
.step run=4752
.step run=4753
.step run=4754
.step run=4755
.step run=4756
.step run=4757
.step run=4758
.step run=4759
.step run=4760
.step run=4761
.step run=4762
.step run=4763
.step run=4764
.step run=4765
.step run=4766
.step run=4767
.step run=4768
.step run=4769
.step run=4770
.step run=4771
.step run=4772
.step run=4773
.step run=4774
.step run=4775
.step run=4776
.step run=4777
.step run=4778
.step run=4779
.step run=4780
.step run=4781
.step run=4782
.step run=4783
.step run=4784
.step run=4785
.step run=4786
.step run=4787
.step run=4788
.step run=4789
.step run=4790
.step run=4791
.step run=4792
.step run=4793
.step run=4794
.step run=4795
.step run=4796
.step run=4797
.step run=4798
.step run=4799
.step run=4800
.step run=4801
.step run=4802
.step run=4803
.step run=4804
.step run=4805
.step run=4806
.step run=4807
.step run=4808
.step run=4809
.step run=4810
.step run=4811
.step run=4812
.step run=4813
.step run=4814
.step run=4815
.step run=4816
.step run=4817
.step run=4818
.step run=4819
.step run=4820
.step run=4821
.step run=4822
.step run=4823
.step run=4824
.step run=4825
.step run=4826
.step run=4827
.step run=4828
.step run=4829
.step run=4830
.step run=4831
.step run=4832
.step run=4833
.step run=4834
.step run=4835
.step run=4836
.step run=4837
.step run=4838
.step run=4839
.step run=4840
.step run=4841
.step run=4842
.step run=4843
.step run=4844
.step run=4845
.step run=4846
.step run=4847
.step run=4848
.step run=4849
.step run=4850
.step run=4851
.step run=4852
.step run=4853
.step run=4854
.step run=4855
.step run=4856
.step run=4857
.step run=4858
.step run=4859
.step run=4860
.step run=4861
.step run=4862
.step run=4863
.step run=4864
.step run=4865
.step run=4866
.step run=4867
.step run=4868
.step run=4869
.step run=4870
.step run=4871
.step run=4872
.step run=4873
.step run=4874
.step run=4875
.step run=4876
.step run=4877
.step run=4878
.step run=4879
.step run=4880
.step run=4881
.step run=4882
.step run=4883
.step run=4884
.step run=4885
.step run=4886
.step run=4887
.step run=4888
.step run=4889
.step run=4890
.step run=4891
.step run=4892
.step run=4893
.step run=4894
.step run=4895
.step run=4896
.step run=4897
.step run=4898
.step run=4899
.step run=4900
.step run=4901
.step run=4902
.step run=4903
.step run=4904
.step run=4905
.step run=4906
.step run=4907
.step run=4908
.step run=4909
.step run=4910
.step run=4911
.step run=4912
.step run=4913
.step run=4914
.step run=4915
.step run=4916
.step run=4917
.step run=4918
.step run=4919
.step run=4920
.step run=4921
.step run=4922
.step run=4923
.step run=4924
.step run=4925
.step run=4926
.step run=4927
.step run=4928
.step run=4929
.step run=4930
.step run=4931
.step run=4932
.step run=4933
.step run=4934
.step run=4935
.step run=4936
.step run=4937
.step run=4938
.step run=4939
.step run=4940
.step run=4941
.step run=4942
.step run=4943
.step run=4944
.step run=4945
.step run=4946
.step run=4947
.step run=4948
.step run=4949
.step run=4950
.step run=4951
.step run=4952
.step run=4953
.step run=4954
.step run=4955
.step run=4956
.step run=4957
.step run=4958
.step run=4959
.step run=4960
.step run=4961
.step run=4962
.step run=4963
.step run=4964
.step run=4965
.step run=4966
.step run=4967
.step run=4968
.step run=4969
.step run=4970
.step run=4971
.step run=4972
.step run=4973
.step run=4974
.step run=4975
.step run=4976
.step run=4977
.step run=4978
.step run=4979
.step run=4980
.step run=4981
.step run=4982
.step run=4983
.step run=4984
.step run=4985
.step run=4986
.step run=4987
.step run=4988
.step run=4989
.step run=4990
.step run=4991
.step run=4992
.step run=4993
.step run=4994
.step run=4995
.step run=4996
.step run=4997
.step run=4998
.step run=4999
.step run=5000
.step run=5001
.step run=5002
.step run=5003
.step run=5004
.step run=5005
.step run=5006
.step run=5007
.step run=5008
.step run=5009
.step run=5010
.step run=5011
.step run=5012
.step run=5013
.step run=5014
.step run=5015
.step run=5016
.step run=5017
.step run=5018
.step run=5019
.step run=5020
.step run=5021
.step run=5022
.step run=5023
.step run=5024
.step run=5025
.step run=5026
.step run=5027
.step run=5028
.step run=5029
.step run=5030
.step run=5031
.step run=5032
.step run=5033
.step run=5034
.step run=5035
.step run=5036
.step run=5037
.step run=5038
.step run=5039
.step run=5040
.step run=5041
.step run=5042
.step run=5043
.step run=5044
.step run=5045
.step run=5046
.step run=5047
.step run=5048
.step run=5049
.step run=5050
.step run=5051
.step run=5052
.step run=5053
.step run=5054
.step run=5055
.step run=5056
.step run=5057
.step run=5058
.step run=5059
.step run=5060
.step run=5061
.step run=5062
.step run=5063
.step run=5064
.step run=5065
.step run=5066
.step run=5067
.step run=5068
.step run=5069
.step run=5070
.step run=5071
.step run=5072
.step run=5073
.step run=5074
.step run=5075
.step run=5076
.step run=5077
.step run=5078
.step run=5079
.step run=5080
.step run=5081
.step run=5082
.step run=5083
.step run=5084
.step run=5085
.step run=5086
.step run=5087
.step run=5088
.step run=5089
.step run=5090
.step run=5091
.step run=5092
.step run=5093
.step run=5094
.step run=5095
.step run=5096
.step run=5097
.step run=5098
.step run=5099
.step run=5100
.step run=5101
.step run=5102
.step run=5103
.step run=5104
.step run=5105
.step run=5106
.step run=5107
.step run=5108
.step run=5109
.step run=5110
.step run=5111
.step run=5112
.step run=5113
.step run=5114
.step run=5115
.step run=5116
.step run=5117
.step run=5118
.step run=5119
.step run=5120
.step run=5121
.step run=5122
.step run=5123
.step run=5124
.step run=5125
.step run=5126
.step run=5127
.step run=5128
.step run=5129
.step run=5130
.step run=5131
.step run=5132
.step run=5133
.step run=5134
.step run=5135
.step run=5136
.step run=5137
.step run=5138
.step run=5139
.step run=5140
.step run=5141
.step run=5142
.step run=5143
.step run=5144
.step run=5145
.step run=5146
.step run=5147
.step run=5148
.step run=5149
.step run=5150
.step run=5151
.step run=5152
.step run=5153
.step run=5154
.step run=5155
.step run=5156
.step run=5157
.step run=5158
.step run=5159
.step run=5160
.step run=5161
.step run=5162
.step run=5163
.step run=5164
.step run=5165
.step run=5166
.step run=5167
.step run=5168
.step run=5169
.step run=5170
.step run=5171
.step run=5172
.step run=5173
.step run=5174
.step run=5175
.step run=5176
.step run=5177
.step run=5178
.step run=5179
.step run=5180
.step run=5181
.step run=5182
.step run=5183
.step run=5184
.step run=5185
.step run=5186
.step run=5187
.step run=5188
.step run=5189
.step run=5190
.step run=5191
.step run=5192
.step run=5193
.step run=5194
.step run=5195
.step run=5196
.step run=5197
.step run=5198
.step run=5199
.step run=5200
.step run=5201
.step run=5202
.step run=5203
.step run=5204
.step run=5205
.step run=5206
.step run=5207
.step run=5208
.step run=5209
.step run=5210
.step run=5211
.step run=5212
.step run=5213
.step run=5214
.step run=5215
.step run=5216
.step run=5217
.step run=5218
.step run=5219
.step run=5220
.step run=5221
.step run=5222
.step run=5223
.step run=5224
.step run=5225
.step run=5226
.step run=5227
.step run=5228
.step run=5229
.step run=5230
.step run=5231
.step run=5232
.step run=5233
.step run=5234
.step run=5235
.step run=5236
.step run=5237
.step run=5238
.step run=5239
.step run=5240
.step run=5241
.step run=5242
.step run=5243
.step run=5244
.step run=5245
.step run=5246
.step run=5247
.step run=5248
.step run=5249
.step run=5250
.step run=5251
.step run=5252
.step run=5253
.step run=5254
.step run=5255
.step run=5256
.step run=5257
.step run=5258
.step run=5259
.step run=5260
.step run=5261
.step run=5262
.step run=5263
.step run=5264
.step run=5265
.step run=5266
.step run=5267
.step run=5268
.step run=5269
.step run=5270
.step run=5271
.step run=5272
.step run=5273
.step run=5274
.step run=5275
.step run=5276
.step run=5277
.step run=5278
.step run=5279
.step run=5280
.step run=5281
.step run=5282
.step run=5283
.step run=5284
.step run=5285
.step run=5286
.step run=5287
.step run=5288
.step run=5289
.step run=5290
.step run=5291
.step run=5292
.step run=5293
.step run=5294
.step run=5295
.step run=5296
.step run=5297
.step run=5298
.step run=5299
.step run=5300
.step run=5301
.step run=5302
.step run=5303
.step run=5304
.step run=5305
.step run=5306
.step run=5307
.step run=5308
.step run=5309
.step run=5310
.step run=5311
.step run=5312
.step run=5313
.step run=5314
.step run=5315
.step run=5316
.step run=5317
.step run=5318
.step run=5319
.step run=5320
.step run=5321
.step run=5322
.step run=5323
.step run=5324
.step run=5325
.step run=5326
.step run=5327
.step run=5328
.step run=5329
.step run=5330
.step run=5331
.step run=5332
.step run=5333
.step run=5334
.step run=5335
.step run=5336
.step run=5337
.step run=5338
.step run=5339
.step run=5340
.step run=5341
.step run=5342
.step run=5343
.step run=5344
.step run=5345
.step run=5346
.step run=5347
.step run=5348
.step run=5349
.step run=5350
.step run=5351
.step run=5352
.step run=5353
.step run=5354
.step run=5355
.step run=5356
.step run=5357
.step run=5358
.step run=5359
.step run=5360
.step run=5361
.step run=5362
.step run=5363
.step run=5364
.step run=5365
.step run=5366
.step run=5367
.step run=5368
.step run=5369
.step run=5370
.step run=5371
.step run=5372
.step run=5373
.step run=5374
.step run=5375
.step run=5376
.step run=5377
.step run=5378
.step run=5379
.step run=5380
.step run=5381
.step run=5382
.step run=5383
.step run=5384
.step run=5385
.step run=5386
.step run=5387
.step run=5388
.step run=5389
.step run=5390
.step run=5391
.step run=5392
.step run=5393
.step run=5394
.step run=5395
.step run=5396
.step run=5397
.step run=5398
.step run=5399
.step run=5400
.step run=5401
.step run=5402
.step run=5403
.step run=5404
.step run=5405
.step run=5406
.step run=5407
.step run=5408
.step run=5409
.step run=5410
.step run=5411
.step run=5412
.step run=5413
.step run=5414
.step run=5415
.step run=5416
.step run=5417
.step run=5418
.step run=5419
.step run=5420
.step run=5421
.step run=5422
.step run=5423
.step run=5424
.step run=5425
.step run=5426
.step run=5427
.step run=5428
.step run=5429
.step run=5430
.step run=5431
.step run=5432
.step run=5433
.step run=5434
.step run=5435
.step run=5436
.step run=5437
.step run=5438
.step run=5439
.step run=5440
.step run=5441
.step run=5442
.step run=5443
.step run=5444
.step run=5445
.step run=5446
.step run=5447
.step run=5448
.step run=5449
.step run=5450
.step run=5451
.step run=5452
.step run=5453
.step run=5454
.step run=5455
.step run=5456
.step run=5457
.step run=5458
.step run=5459
.step run=5460
.step run=5461
.step run=5462
.step run=5463
.step run=5464
.step run=5465
.step run=5466
.step run=5467
.step run=5468
.step run=5469
.step run=5470
.step run=5471
.step run=5472
.step run=5473
.step run=5474
.step run=5475
.step run=5476
.step run=5477
.step run=5478
.step run=5479
.step run=5480
.step run=5481
.step run=5482
.step run=5483
.step run=5484
.step run=5485
.step run=5486
.step run=5487
.step run=5488
.step run=5489
.step run=5490
.step run=5491
.step run=5492
.step run=5493
.step run=5494
.step run=5495
.step run=5496
.step run=5497
.step run=5498
.step run=5499
.step run=5500
.step run=5501
.step run=5502
.step run=5503
.step run=5504
.step run=5505
.step run=5506
.step run=5507
.step run=5508
.step run=5509
.step run=5510
.step run=5511
.step run=5512
.step run=5513
.step run=5514
.step run=5515
.step run=5516
.step run=5517
.step run=5518
.step run=5519
.step run=5520
.step run=5521
.step run=5522
.step run=5523
.step run=5524
.step run=5525
.step run=5526
.step run=5527
.step run=5528
.step run=5529
.step run=5530
.step run=5531
.step run=5532
.step run=5533
.step run=5534
.step run=5535
.step run=5536
.step run=5537
.step run=5538
.step run=5539
.step run=5540
.step run=5541
.step run=5542
.step run=5543
.step run=5544
.step run=5545
.step run=5546
.step run=5547
.step run=5548
.step run=5549
.step run=5550
.step run=5551
.step run=5552
.step run=5553
.step run=5554
.step run=5555
.step run=5556
.step run=5557
.step run=5558
.step run=5559
.step run=5560
.step run=5561
.step run=5562
.step run=5563
.step run=5564
.step run=5565
.step run=5566
.step run=5567
.step run=5568
.step run=5569
.step run=5570
.step run=5571
.step run=5572
.step run=5573
.step run=5574
.step run=5575
.step run=5576
.step run=5577
.step run=5578
.step run=5579
.step run=5580
.step run=5581
.step run=5582
.step run=5583
.step run=5584
.step run=5585
.step run=5586
.step run=5587
.step run=5588
.step run=5589
.step run=5590
.step run=5591
.step run=5592
.step run=5593
.step run=5594
.step run=5595
.step run=5596
.step run=5597
.step run=5598
.step run=5599
.step run=5600
.step run=5601
.step run=5602
.step run=5603
.step run=5604
.step run=5605
.step run=5606
.step run=5607
.step run=5608
.step run=5609
.step run=5610
.step run=5611
.step run=5612
.step run=5613
.step run=5614
.step run=5615
.step run=5616
.step run=5617
.step run=5618
.step run=5619
.step run=5620
.step run=5621
.step run=5622
.step run=5623
.step run=5624
.step run=5625
.step run=5626
.step run=5627
.step run=5628
.step run=5629
.step run=5630
.step run=5631
.step run=5632
.step run=5633
.step run=5634
.step run=5635
.step run=5636
.step run=5637
.step run=5638
.step run=5639
.step run=5640
.step run=5641
.step run=5642
.step run=5643
.step run=5644
.step run=5645
.step run=5646
.step run=5647
.step run=5648
.step run=5649
.step run=5650
.step run=5651
.step run=5652
.step run=5653
.step run=5654
.step run=5655
.step run=5656
.step run=5657
.step run=5658
.step run=5659
.step run=5660
.step run=5661
.step run=5662
.step run=5663
.step run=5664
.step run=5665
.step run=5666
.step run=5667
.step run=5668
.step run=5669
.step run=5670
.step run=5671
.step run=5672
.step run=5673
.step run=5674
.step run=5675
.step run=5676
.step run=5677
.step run=5678
.step run=5679
.step run=5680
.step run=5681
.step run=5682
.step run=5683
.step run=5684
.step run=5685
.step run=5686
.step run=5687
.step run=5688
.step run=5689
.step run=5690
.step run=5691
.step run=5692
.step run=5693
.step run=5694
.step run=5695
.step run=5696
.step run=5697
.step run=5698
.step run=5699
.step run=5700

Date: Tue Oct 09 22:41:17 2018
Total elapsed time: 1774.705 seconds.

tnom = 27
temp = 27
method = Gear
totiter = 4426
traniter = 4076
tranpoints = 1997
accept = 1792
rejected = 205
matrix size = 38
fillins = 59
solver = Normal
Matrix Compiler1: off
Matrix Compiler2: off

